/*---------------------------------------------------------------------------*\
| =========                 |                                                 |
| \\      /  F ield         | OpenFOAM: The Open Source CFD Toolbox           |
|  \\    /   O peration     | Version:  v2006                                 |
|   \\  /    A nd           | Website:  www.openfoam.com                      |
|    \\/     M anipulation  |                                                 |
\*---------------------------------------------------------------------------*/
Build  : _b45f8f6f58-20200629 OPENFOAM=2006
Arch   : "LSB;label=32;scalar=64"
Exec   : transpDomFoam
Date   : Aug 25 2020
Time   : 11:22:19
Host   : bounty.maths.sissa.it
PID    : 16622
I/O    : uncollated
Case   : /u/d/dpapapic/OpenFOAM/dpapapic-v2006/run/test/linearWaveTransport/01linearScheme/01pureDiffusion
nProcs : 1
trapFpe: Floating point exception trapping enabled (FOAM_SIGFPE).
fileModificationChecking : Monitoring run-time modified files using timeStampMaster (fileModificationSkew 5, maxFileModificationPolls 20)
allowSystemOperations : Allowing user-supplied system call operations

// * * * * * * * * * * * * * * * * * * * * * * * * * * * * * * * * * * * * * //
Create time

Create mesh for time = 0

Reading-in field r

Reading-in field U

Reading/calculating face flux field phi

Reading-in constant/transportProperties

Reading-in entries of keyword nu


Computing transported (scalar) field

Courant Number mean: 0 max: 0
Time = 0.05

nonePBiCG:  Solving for r, Initial residual = 0.00664592, Final residual = 2.17997e-10, No Iterations 10
Time = 0.1

nonePBiCG:  Solving for r, Initial residual = 0.00464833, Final residual = 2.15139e-10, No Iterations 10
Time = 0.15

nonePBiCG:  Solving for r, Initial residual = 0.00345536, Final residual = 1.93376e-10, No Iterations 10
Time = 0.2

nonePBiCG:  Solving for r, Initial residual = 0.00272049, Final residual = 8.93378e-10, No Iterations 9
Time = 0.25

nonePBiCG:  Solving for r, Initial residual = 0.00225291, Final residual = 7.1519e-10, No Iterations 9
Time = 0.3

nonePBiCG:  Solving for r, Initial residual = 0.0019397, Final residual = 5.48996e-10, No Iterations 9
Time = 0.35

nonePBiCG:  Solving for r, Initial residual = 0.00171933, Final residual = 4.06455e-10, No Iterations 9
Time = 0.4

nonePBiCG:  Solving for r, Initial residual = 0.00155788, Final residual = 3.09998e-10, No Iterations 9
Time = 0.45

nonePBiCG:  Solving for r, Initial residual = 0.00143478, Final residual = 2.43449e-10, No Iterations 9
Time = 0.5

nonePBiCG:  Solving for r, Initial residual = 0.00133755, Final residual = 9.9385e-10, No Iterations 8
Time = 0.55

nonePBiCG:  Solving for r, Initial residual = 0.00125846, Final residual = 7.06524e-10, No Iterations 8
Time = 0.6

nonePBiCG:  Solving for r, Initial residual = 0.00119228, Final residual = 5.26616e-10, No Iterations 8
Time = 0.65

nonePBiCG:  Solving for r, Initial residual = 0.00113569, Final residual = 4.08445e-10, No Iterations 8
Time = 0.7

nonePBiCG:  Solving for r, Initial residual = 0.00108675, Final residual = 2.98546e-10, No Iterations 8
Time = 0.75

nonePBiCG:  Solving for r, Initial residual = 0.00104391, Final residual = 2.20228e-10, No Iterations 8
Time = 0.8

nonePBiCG:  Solving for r, Initial residual = 0.00100599, Final residual = 8.47187e-10, No Iterations 7
Time = 0.85

nonePBiCG:  Solving for r, Initial residual = 0.000972118, Final residual = 6.4735e-10, No Iterations 7
Time = 0.9

nonePBiCG:  Solving for r, Initial residual = 0.000941612, Final residual = 4.91792e-10, No Iterations 7
Time = 0.95

nonePBiCG:  Solving for r, Initial residual = 0.000913949, Final residual = 3.50358e-10, No Iterations 7
Time = 1

nonePBiCG:  Solving for r, Initial residual = 0.000888713, Final residual = 2.43844e-10, No Iterations 7
Time = 1.05

nonePBiCG:  Solving for r, Initial residual = 0.000865463, Final residual = 9.44161e-10, No Iterations 6
Time = 1.1

nonePBiCG:  Solving for r, Initial residual = 0.000843908, Final residual = 6.78542e-10, No Iterations 6
Time = 1.15

nonePBiCG:  Solving for r, Initial residual = 0.000823934, Final residual = 4.7434e-10, No Iterations 6
Time = 1.2

nonePBiCG:  Solving for r, Initial residual = 0.000805384, Final residual = 3.40814e-10, No Iterations 6
Time = 1.25

nonePBiCG:  Solving for r, Initial residual = 0.000788097, Final residual = 2.4815e-10, No Iterations 6
Time = 1.3

nonePBiCG:  Solving for r, Initial residual = 0.000771937, Final residual = 1.88764e-10, No Iterations 6
Time = 1.35

nonePBiCG:  Solving for r, Initial residual = 0.000756787, Final residual = 9.22912e-10, No Iterations 5
Time = 1.4

nonePBiCG:  Solving for r, Initial residual = 0.000742547, Final residual = 7.49346e-10, No Iterations 5
Time = 1.45

nonePBiCG:  Solving for r, Initial residual = 0.00072913, Final residual = 6.0012e-10, No Iterations 5
Time = 1.5

nonePBiCG:  Solving for r, Initial residual = 0.00071646, Final residual = 4.81951e-10, No Iterations 5
Time = 1.55

nonePBiCG:  Solving for r, Initial residual = 0.000704471, Final residual = 3.89557e-10, No Iterations 5
Time = 1.6

nonePBiCG:  Solving for r, Initial residual = 0.000693104, Final residual = 3.21232e-10, No Iterations 5
Time = 1.65

nonePBiCG:  Solving for r, Initial residual = 0.000682257, Final residual = 2.66614e-10, No Iterations 5
Time = 1.7

nonePBiCG:  Solving for r, Initial residual = 0.000671872, Final residual = 2.20777e-10, No Iterations 5
Time = 1.75

nonePBiCG:  Solving for r, Initial residual = 0.000661961, Final residual = 1.84046e-10, No Iterations 5
Time = 1.8

nonePBiCG:  Solving for r, Initial residual = 0.000652504, Final residual = 1.52193e-10, No Iterations 5
Time = 1.85

nonePBiCG:  Solving for r, Initial residual = 0.000643467, Final residual = 1.30512e-10, No Iterations 5
Time = 1.9

nonePBiCG:  Solving for r, Initial residual = 0.000634822, Final residual = 1.12697e-10, No Iterations 5
Time = 1.95

nonePBiCG:  Solving for r, Initial residual = 0.00062654, Final residual = 9.63739e-11, No Iterations 5
Time = 2

nonePBiCG:  Solving for r, Initial residual = 0.000618597, Final residual = 8.1972e-11, No Iterations 5
Time = 2.05

nonePBiCG:  Solving for r, Initial residual = 0.000610972, Final residual = 9.61974e-10, No Iterations 4
Time = 2.1

nonePBiCG:  Solving for r, Initial residual = 0.000603643, Final residual = 8.61158e-10, No Iterations 4
Time = 2.15

nonePBiCG:  Solving for r, Initial residual = 0.000596592, Final residual = 7.70683e-10, No Iterations 4
Time = 2.2

nonePBiCG:  Solving for r, Initial residual = 0.000589802, Final residual = 6.87235e-10, No Iterations 4
Time = 2.25

nonePBiCG:  Solving for r, Initial residual = 0.000583257, Final residual = 6.12986e-10, No Iterations 4
Time = 2.3

nonePBiCG:  Solving for r, Initial residual = 0.000576944, Final residual = 5.51096e-10, No Iterations 4
Time = 2.35

nonePBiCG:  Solving for r, Initial residual = 0.000570849, Final residual = 4.96278e-10, No Iterations 4
Time = 2.4

nonePBiCG:  Solving for r, Initial residual = 0.000564932, Final residual = 4.47838e-10, No Iterations 4
Time = 2.45

nonePBiCG:  Solving for r, Initial residual = 0.000559173, Final residual = 4.05649e-10, No Iterations 4
Time = 2.5

nonePBiCG:  Solving for r, Initial residual = 0.000553591, Final residual = 3.68312e-10, No Iterations 4
Time = 2.55

nonePBiCG:  Solving for r, Initial residual = 0.000548187, Final residual = 3.37458e-10, No Iterations 4
Time = 2.6

nonePBiCG:  Solving for r, Initial residual = 0.000542951, Final residual = 3.08424e-10, No Iterations 4
Time = 2.65

nonePBiCG:  Solving for r, Initial residual = 0.000537875, Final residual = 2.81122e-10, No Iterations 4
Time = 2.7

nonePBiCG:  Solving for r, Initial residual = 0.000532951, Final residual = 2.55588e-10, No Iterations 4
Time = 2.75

nonePBiCG:  Solving for r, Initial residual = 0.000528172, Final residual = 2.31972e-10, No Iterations 4
Time = 2.8

nonePBiCG:  Solving for r, Initial residual = 0.00052353, Final residual = 2.13003e-10, No Iterations 4
Time = 2.85

nonePBiCG:  Solving for r, Initial residual = 0.00051902, Final residual = 1.97456e-10, No Iterations 4
Time = 2.9

nonePBiCG:  Solving for r, Initial residual = 0.000514636, Final residual = 1.82898e-10, No Iterations 4
Time = 2.95

nonePBiCG:  Solving for r, Initial residual = 0.000510371, Final residual = 1.69459e-10, No Iterations 4
Time = 3

nonePBiCG:  Solving for r, Initial residual = 0.000506221, Final residual = 1.56818e-10, No Iterations 4
Time = 3.05

nonePBiCG:  Solving for r, Initial residual = 0.000502181, Final residual = 1.45111e-10, No Iterations 4
Time = 3.1

nonePBiCG:  Solving for r, Initial residual = 0.000498245, Final residual = 1.3468e-10, No Iterations 4
Time = 3.15

nonePBiCG:  Solving for r, Initial residual = 0.00049441, Final residual = 1.25398e-10, No Iterations 4
Time = 3.2

nonePBiCG:  Solving for r, Initial residual = 0.000490671, Final residual = 1.16875e-10, No Iterations 4
Time = 3.25

nonePBiCG:  Solving for r, Initial residual = 0.000487025, Final residual = 1.08917e-10, No Iterations 4
Time = 3.3

nonePBiCG:  Solving for r, Initial residual = 0.00048345, Final residual = 1.01905e-10, No Iterations 4
Time = 3.35

nonePBiCG:  Solving for r, Initial residual = 0.000479938, Final residual = 9.562e-11, No Iterations 4
Time = 3.4

nonePBiCG:  Solving for r, Initial residual = 0.000476503, Final residual = 8.98561e-11, No Iterations 4
Time = 3.45

nonePBiCG:  Solving for r, Initial residual = 0.000473147, Final residual = 8.49305e-11, No Iterations 4
Time = 3.5

nonePBiCG:  Solving for r, Initial residual = 0.000469869, Final residual = 8.08235e-11, No Iterations 4
Time = 3.55

nonePBiCG:  Solving for r, Initial residual = 0.000466665, Final residual = 7.72252e-11, No Iterations 4
Time = 3.6

nonePBiCG:  Solving for r, Initial residual = 0.000463532, Final residual = 7.44112e-11, No Iterations 4
Time = 3.65

nonePBiCG:  Solving for r, Initial residual = 0.000460468, Final residual = 7.26223e-11, No Iterations 4
Time = 3.7

nonePBiCG:  Solving for r, Initial residual = 0.000457471, Final residual = 7.10579e-11, No Iterations 4
Time = 3.75

nonePBiCG:  Solving for r, Initial residual = 0.000454538, Final residual = 6.97483e-11, No Iterations 4
Time = 3.8

nonePBiCG:  Solving for r, Initial residual = 0.000451667, Final residual = 6.87876e-11, No Iterations 4
Time = 3.85

nonePBiCG:  Solving for r, Initial residual = 0.000448856, Final residual = 6.8296e-11, No Iterations 4
Time = 3.9

nonePBiCG:  Solving for r, Initial residual = 0.000446103, Final residual = 6.81882e-11, No Iterations 4
Time = 3.95

nonePBiCG:  Solving for r, Initial residual = 0.000443405, Final residual = 6.84913e-11, No Iterations 4
Time = 4

nonePBiCG:  Solving for r, Initial residual = 0.000440762, Final residual = 6.91433e-11, No Iterations 4
Time = 4.05

nonePBiCG:  Solving for r, Initial residual = 0.000438171, Final residual = 7.01309e-11, No Iterations 4
Time = 4.1

nonePBiCG:  Solving for r, Initial residual = 0.00043563, Final residual = 7.13774e-11, No Iterations 4
Time = 4.15

nonePBiCG:  Solving for r, Initial residual = 0.000433139, Final residual = 7.29757e-11, No Iterations 4
Time = 4.2

nonePBiCG:  Solving for r, Initial residual = 0.000430695, Final residual = 7.51189e-11, No Iterations 4
Time = 4.25

nonePBiCG:  Solving for r, Initial residual = 0.000428297, Final residual = 7.75636e-11, No Iterations 4
Time = 4.3

nonePBiCG:  Solving for r, Initial residual = 0.000425944, Final residual = 8.0287e-11, No Iterations 4
Time = 4.35

nonePBiCG:  Solving for r, Initial residual = 0.000423623, Final residual = 8.33016e-11, No Iterations 4
Time = 4.4

nonePBiCG:  Solving for r, Initial residual = 0.000421328, Final residual = 9.74898e-10, No Iterations 3
Time = 4.45

nonePBiCG:  Solving for r, Initial residual = 0.000419071, Final residual = 9.18451e-10, No Iterations 3
Time = 4.5

nonePBiCG:  Solving for r, Initial residual = 0.000416854, Final residual = 8.79833e-10, No Iterations 3
Time = 4.55

nonePBiCG:  Solving for r, Initial residual = 0.000414675, Final residual = 8.41702e-10, No Iterations 3
Time = 4.6

nonePBiCG:  Solving for r, Initial residual = 0.000412535, Final residual = 8.05877e-10, No Iterations 3
Time = 4.65

nonePBiCG:  Solving for r, Initial residual = 0.000410432, Final residual = 7.71741e-10, No Iterations 3
Time = 4.7

nonePBiCG:  Solving for r, Initial residual = 0.000408364, Final residual = 7.3989e-10, No Iterations 3
Time = 4.75

nonePBiCG:  Solving for r, Initial residual = 0.000406332, Final residual = 7.0959e-10, No Iterations 3
Time = 4.8

nonePBiCG:  Solving for r, Initial residual = 0.000404333, Final residual = 6.80636e-10, No Iterations 3
Time = 4.85

nonePBiCG:  Solving for r, Initial residual = 0.000402368, Final residual = 6.5256e-10, No Iterations 3
Time = 4.9

nonePBiCG:  Solving for r, Initial residual = 0.000400434, Final residual = 6.26308e-10, No Iterations 3
Time = 4.95

nonePBiCG:  Solving for r, Initial residual = 0.000398532, Final residual = 6.01331e-10, No Iterations 3
Time = 5

nonePBiCG:  Solving for r, Initial residual = 0.000396661, Final residual = 5.77129e-10, No Iterations 3
Time = 5.05

nonePBiCG:  Solving for r, Initial residual = 0.000394819, Final residual = 5.53711e-10, No Iterations 3
Time = 5.1

nonePBiCG:  Solving for r, Initial residual = 0.000393006, Final residual = 5.31079e-10, No Iterations 3
Time = 5.15

nonePBiCG:  Solving for r, Initial residual = 0.000391221, Final residual = 5.09232e-10, No Iterations 3
Time = 5.2

nonePBiCG:  Solving for r, Initial residual = 0.000389464, Final residual = 4.88166e-10, No Iterations 3
Time = 5.25

nonePBiCG:  Solving for r, Initial residual = 0.000387733, Final residual = 4.68038e-10, No Iterations 3
Time = 5.3

nonePBiCG:  Solving for r, Initial residual = 0.000386029, Final residual = 4.48877e-10, No Iterations 3
Time = 5.35

nonePBiCG:  Solving for r, Initial residual = 0.00038435, Final residual = 4.30639e-10, No Iterations 3
Time = 5.4

nonePBiCG:  Solving for r, Initial residual = 0.000382696, Final residual = 4.13619e-10, No Iterations 3
Time = 5.45

nonePBiCG:  Solving for r, Initial residual = 0.000381067, Final residual = 3.97563e-10, No Iterations 3
Time = 5.5

nonePBiCG:  Solving for r, Initial residual = 0.000379461, Final residual = 3.82294e-10, No Iterations 3
Time = 5.55

nonePBiCG:  Solving for r, Initial residual = 0.000377871, Final residual = 3.67558e-10, No Iterations 3
Time = 5.6

nonePBiCG:  Solving for r, Initial residual = 0.000376292, Final residual = 3.53345e-10, No Iterations 3
Time = 5.65

nonePBiCG:  Solving for r, Initial residual = 0.000374732, Final residual = 3.39654e-10, No Iterations 3
Time = 5.7

nonePBiCG:  Solving for r, Initial residual = 0.000373195, Final residual = 3.26479e-10, No Iterations 3
Time = 5.75

nonePBiCG:  Solving for r, Initial residual = 0.000371679, Final residual = 3.13807e-10, No Iterations 3
Time = 5.8

nonePBiCG:  Solving for r, Initial residual = 0.000370184, Final residual = 3.01626e-10, No Iterations 3
Time = 5.85

nonePBiCG:  Solving for r, Initial residual = 0.000368709, Final residual = 2.89924e-10, No Iterations 3
Time = 5.9

nonePBiCG:  Solving for r, Initial residual = 0.000367254, Final residual = 2.78686e-10, No Iterations 3
Time = 5.95

nonePBiCG:  Solving for r, Initial residual = 0.000365819, Final residual = 2.68096e-10, No Iterations 3
Time = 6

nonePBiCG:  Solving for r, Initial residual = 0.000364404, Final residual = 2.58196e-10, No Iterations 3
Time = 6.05

nonePBiCG:  Solving for r, Initial residual = 0.000363007, Final residual = 2.48729e-10, No Iterations 3
Time = 6.1

nonePBiCG:  Solving for r, Initial residual = 0.000361628, Final residual = 2.3964e-10, No Iterations 3
Time = 6.15

nonePBiCG:  Solving for r, Initial residual = 0.000360268, Final residual = 2.31226e-10, No Iterations 3
Time = 6.2

nonePBiCG:  Solving for r, Initial residual = 0.000358925, Final residual = 2.23161e-10, No Iterations 3
Time = 6.25

nonePBiCG:  Solving for r, Initial residual = 0.000357599, Final residual = 2.154e-10, No Iterations 3
Time = 6.3

nonePBiCG:  Solving for r, Initial residual = 0.00035629, Final residual = 2.07987e-10, No Iterations 3
Time = 6.35

nonePBiCG:  Solving for r, Initial residual = 0.000354998, Final residual = 2.00908e-10, No Iterations 3
Time = 6.4

nonePBiCG:  Solving for r, Initial residual = 0.000353722, Final residual = 1.94124e-10, No Iterations 3
Time = 6.45

nonePBiCG:  Solving for r, Initial residual = 0.000352462, Final residual = 1.87598e-10, No Iterations 3
Time = 6.5

nonePBiCG:  Solving for r, Initial residual = 0.000351217, Final residual = 1.81321e-10, No Iterations 3
Time = 6.55

nonePBiCG:  Solving for r, Initial residual = 0.000349988, Final residual = 1.75284e-10, No Iterations 3
Time = 6.6

nonePBiCG:  Solving for r, Initial residual = 0.000348773, Final residual = 1.69479e-10, No Iterations 3
Time = 6.65

nonePBiCG:  Solving for r, Initial residual = 0.000347573, Final residual = 1.64123e-10, No Iterations 3
Time = 6.7

nonePBiCG:  Solving for r, Initial residual = 0.000346388, Final residual = 1.5901e-10, No Iterations 3
Time = 6.75

nonePBiCG:  Solving for r, Initial residual = 0.000345217, Final residual = 1.54264e-10, No Iterations 3
Time = 6.8

nonePBiCG:  Solving for r, Initial residual = 0.000344059, Final residual = 1.497e-10, No Iterations 3
Time = 6.85

nonePBiCG:  Solving for r, Initial residual = 0.000342916, Final residual = 1.45326e-10, No Iterations 3
Time = 6.9

nonePBiCG:  Solving for r, Initial residual = 0.000341779, Final residual = 1.41109e-10, No Iterations 3
Time = 6.95

nonePBiCG:  Solving for r, Initial residual = 0.000340648, Final residual = 1.37037e-10, No Iterations 3
Time = 7

nonePBiCG:  Solving for r, Initial residual = 0.000339528, Final residual = 1.33249e-10, No Iterations 3
Time = 7.05

nonePBiCG:  Solving for r, Initial residual = 0.00033842, Final residual = 1.29653e-10, No Iterations 3
Time = 7.1

nonePBiCG:  Solving for r, Initial residual = 0.000337324, Final residual = 1.26176e-10, No Iterations 3
Time = 7.15

nonePBiCG:  Solving for r, Initial residual = 0.000336242, Final residual = 1.22818e-10, No Iterations 3
Time = 7.2

nonePBiCG:  Solving for r, Initial residual = 0.000335171, Final residual = 1.19614e-10, No Iterations 3
Time = 7.25

nonePBiCG:  Solving for r, Initial residual = 0.000334112, Final residual = 1.16519e-10, No Iterations 3
Time = 7.3

nonePBiCG:  Solving for r, Initial residual = 0.000333065, Final residual = 1.13624e-10, No Iterations 3
Time = 7.35

nonePBiCG:  Solving for r, Initial residual = 0.000332029, Final residual = 1.10858e-10, No Iterations 3
Time = 7.4

nonePBiCG:  Solving for r, Initial residual = 0.000331004, Final residual = 1.08175e-10, No Iterations 3
Time = 7.45

nonePBiCG:  Solving for r, Initial residual = 0.000329991, Final residual = 1.05574e-10, No Iterations 3
Time = 7.5

nonePBiCG:  Solving for r, Initial residual = 0.000328988, Final residual = 1.03073e-10, No Iterations 3
Time = 7.55

nonePBiCG:  Solving for r, Initial residual = 0.000327996, Final residual = 1.00766e-10, No Iterations 3
Time = 7.6

nonePBiCG:  Solving for r, Initial residual = 0.000327015, Final residual = 9.86354e-11, No Iterations 3
Time = 7.65

nonePBiCG:  Solving for r, Initial residual = 0.000326044, Final residual = 9.66923e-11, No Iterations 3
Time = 7.7

nonePBiCG:  Solving for r, Initial residual = 0.000325083, Final residual = 9.50422e-11, No Iterations 3
Time = 7.75

nonePBiCG:  Solving for r, Initial residual = 0.000324132, Final residual = 9.35257e-11, No Iterations 3
Time = 7.8

nonePBiCG:  Solving for r, Initial residual = 0.000323191, Final residual = 9.20334e-11, No Iterations 3
Time = 7.85

nonePBiCG:  Solving for r, Initial residual = 0.000322259, Final residual = 9.05647e-11, No Iterations 3
Time = 7.9

nonePBiCG:  Solving for r, Initial residual = 0.000321337, Final residual = 8.91188e-11, No Iterations 3
Time = 7.95

nonePBiCG:  Solving for r, Initial residual = 0.000320425, Final residual = 8.76951e-11, No Iterations 3
Time = 8

nonePBiCG:  Solving for r, Initial residual = 0.000319521, Final residual = 8.6293e-11, No Iterations 3
Time = 8.05

nonePBiCG:  Solving for r, Initial residual = 0.000318627, Final residual = 8.49119e-11, No Iterations 3
Time = 8.1

nonePBiCG:  Solving for r, Initial residual = 0.000317742, Final residual = 8.35509e-11, No Iterations 3
Time = 8.15

nonePBiCG:  Solving for r, Initial residual = 0.000316865, Final residual = 8.22097e-11, No Iterations 3
Time = 8.2

nonePBiCG:  Solving for r, Initial residual = 0.000315997, Final residual = 8.08874e-11, No Iterations 3
Time = 8.25

nonePBiCG:  Solving for r, Initial residual = 0.000315137, Final residual = 7.95835e-11, No Iterations 3
Time = 8.3

nonePBiCG:  Solving for r, Initial residual = 0.000314286, Final residual = 7.82975e-11, No Iterations 3
Time = 8.35

nonePBiCG:  Solving for r, Initial residual = 0.000313443, Final residual = 7.70737e-11, No Iterations 3
Time = 8.4

nonePBiCG:  Solving for r, Initial residual = 0.000312604, Final residual = 7.58741e-11, No Iterations 3
Time = 8.45

nonePBiCG:  Solving for r, Initial residual = 0.000311766, Final residual = 7.46866e-11, No Iterations 3
Time = 8.5

nonePBiCG:  Solving for r, Initial residual = 0.000310935, Final residual = 7.35119e-11, No Iterations 3
Time = 8.55

nonePBiCG:  Solving for r, Initial residual = 0.000310112, Final residual = 7.23501e-11, No Iterations 3
Time = 8.6

nonePBiCG:  Solving for r, Initial residual = 0.000309296, Final residual = 7.12009e-11, No Iterations 3
Time = 8.65

nonePBiCG:  Solving for r, Initial residual = 0.000308488, Final residual = 7.0064e-11, No Iterations 3
Time = 8.7

nonePBiCG:  Solving for r, Initial residual = 0.000307687, Final residual = 6.89447e-11, No Iterations 3
Time = 8.75

nonePBiCG:  Solving for r, Initial residual = 0.000306894, Final residual = 6.78743e-11, No Iterations 3
Time = 8.8

nonePBiCG:  Solving for r, Initial residual = 0.000306108, Final residual = 6.68233e-11, No Iterations 3
Time = 8.85

nonePBiCG:  Solving for r, Initial residual = 0.000305329, Final residual = 6.57957e-11, No Iterations 3
Time = 8.9

nonePBiCG:  Solving for r, Initial residual = 0.000304557, Final residual = 6.47802e-11, No Iterations 3
Time = 8.95

nonePBiCG:  Solving for r, Initial residual = 0.000303793, Final residual = 6.37721e-11, No Iterations 3
Time = 9

nonePBiCG:  Solving for r, Initial residual = 0.000303035, Final residual = 6.27789e-11, No Iterations 3
Time = 9.05

nonePBiCG:  Solving for r, Initial residual = 0.000302284, Final residual = 6.18137e-11, No Iterations 3
Time = 9.1

nonePBiCG:  Solving for r, Initial residual = 0.000301539, Final residual = 6.08546e-11, No Iterations 3
Time = 9.15

nonePBiCG:  Solving for r, Initial residual = 0.000300801, Final residual = 5.99015e-11, No Iterations 3
Time = 9.2

nonePBiCG:  Solving for r, Initial residual = 0.00030007, Final residual = 5.89546e-11, No Iterations 3
Time = 9.25

nonePBiCG:  Solving for r, Initial residual = 0.000299345, Final residual = 5.80185e-11, No Iterations 3
Time = 9.3

nonePBiCG:  Solving for r, Initial residual = 0.000298626, Final residual = 5.7095e-11, No Iterations 3
Time = 9.35

nonePBiCG:  Solving for r, Initial residual = 0.000297914, Final residual = 5.61775e-11, No Iterations 3
Time = 9.4

nonePBiCG:  Solving for r, Initial residual = 0.000297207, Final residual = 5.52659e-11, No Iterations 3
Time = 9.45

nonePBiCG:  Solving for r, Initial residual = 0.000296507, Final residual = 5.43604e-11, No Iterations 3
Time = 9.5

nonePBiCG:  Solving for r, Initial residual = 0.000295812, Final residual = 5.3461e-11, No Iterations 3
Time = 9.55

nonePBiCG:  Solving for r, Initial residual = 0.000295124, Final residual = 5.25848e-11, No Iterations 3
Time = 9.6

nonePBiCG:  Solving for r, Initial residual = 0.000294441, Final residual = 5.17395e-11, No Iterations 3
Time = 9.65

nonePBiCG:  Solving for r, Initial residual = 0.000293764, Final residual = 5.09042e-11, No Iterations 3
Time = 9.7

nonePBiCG:  Solving for r, Initial residual = 0.000293093, Final residual = 5.01066e-11, No Iterations 3
Time = 9.75

nonePBiCG:  Solving for r, Initial residual = 0.000292427, Final residual = 4.93167e-11, No Iterations 3
Time = 9.8

nonePBiCG:  Solving for r, Initial residual = 0.000291766, Final residual = 4.85305e-11, No Iterations 3
Time = 9.85

nonePBiCG:  Solving for r, Initial residual = 0.000291111, Final residual = 4.77483e-11, No Iterations 3
Time = 9.9

nonePBiCG:  Solving for r, Initial residual = 0.000290462, Final residual = 4.69703e-11, No Iterations 3
Time = 9.95

nonePBiCG:  Solving for r, Initial residual = 0.000289818, Final residual = 4.61966e-11, No Iterations 3
Time = 10

nonePBiCG:  Solving for r, Initial residual = 0.000289178, Final residual = 4.54275e-11, No Iterations 3
End

