/*---------------------------------------------------------------------------*\
| =========                 |                                                 |
| \\      /  F ield         | OpenFOAM: The Open Source CFD Toolbox           |
|  \\    /   O peration     | Version:  v2006                                 |
|   \\  /    A nd           | Website:  www.openfoam.com                      |
|    \\/     M anipulation  |                                                 |
\*---------------------------------------------------------------------------*/
Build  : _b45f8f6f58-20200629 OPENFOAM=2006
Arch   : "LSB;label=32;scalar=64"
Exec   : transpDomFoam
Date   : Aug 26 2020
Time   : 15:46:28
Host   : bounty.maths.sissa.it
PID    : 17479
I/O    : uncollated
Case   : /u/d/dpapapic/OpenFOAM/dpapapic-v2006/run/chap2/batch2/sim6
nProcs : 1
trapFpe: Floating point exception trapping enabled (FOAM_SIGFPE).
fileModificationChecking : Monitoring run-time modified files using timeStampMaster (fileModificationSkew 5, maxFileModificationPolls 20)
allowSystemOperations : Allowing user-supplied system call operations

// * * * * * * * * * * * * * * * * * * * * * * * * * * * * * * * * * * * * * //
Create time

Create mesh for time = 0

Reading-in field r

Reading-in field U

Reading/calculating face flux field phi

Reading-in constant/transportProperties

Reading-in entries of keyword nu


Computing transported (scalar) field

Courant Number mean: 0.583333 max: 0.583333
Time = 0.05

nonePBiCG:  Solving for r, Initial residual = 0.00714116, Final residual = 7.46994e-10, No Iterations 17
Time = 0.1

nonePBiCG:  Solving for r, Initial residual = 0.00769652, Final residual = 8.23462e-10, No Iterations 18
Time = 0.15

nonePBiCG:  Solving for r, Initial residual = 0.00769003, Final residual = 4.82153e-10, No Iterations 16
Time = 0.2

nonePBiCG:  Solving for r, Initial residual = 0.00808744, Final residual = 1.90144e-10, No Iterations 19
Time = 0.25

nonePBiCG:  Solving for r, Initial residual = 0.00821941, Final residual = 4.39431e-10, No Iterations 18
Time = 0.3

nonePBiCG:  Solving for r, Initial residual = 0.00812338, Final residual = 8.36216e-10, No Iterations 18
Time = 0.35

nonePBiCG:  Solving for r, Initial residual = 0.00818945, Final residual = 7.95315e-10, No Iterations 16
Time = 0.4

nonePBiCG:  Solving for r, Initial residual = 0.0082453, Final residual = 8.25271e-10, No Iterations 17
Time = 0.45

nonePBiCG:  Solving for r, Initial residual = 0.00808685, Final residual = 9.09437e-10, No Iterations 17
Time = 0.5

nonePBiCG:  Solving for r, Initial residual = 0.00816236, Final residual = 4.83934e-10, No Iterations 18
Time = 0.55

nonePBiCG:  Solving for r, Initial residual = 0.00803252, Final residual = 4.89271e-10, No Iterations 17
Time = 0.6

nonePBiCG:  Solving for r, Initial residual = 0.00795872, Final residual = 6.6829e-10, No Iterations 17
Time = 0.65

nonePBiCG:  Solving for r, Initial residual = 0.00799592, Final residual = 7.41893e-10, No Iterations 18
Time = 0.7

nonePBiCG:  Solving for r, Initial residual = 0.00785457, Final residual = 3.038e-10, No Iterations 18
Time = 0.75

nonePBiCG:  Solving for r, Initial residual = 0.00788588, Final residual = 2.54176e-10, No Iterations 18
Time = 0.8

nonePBiCG:  Solving for r, Initial residual = 0.00778935, Final residual = 3.86239e-10, No Iterations 18
Time = 0.85

nonePBiCG:  Solving for r, Initial residual = 0.00771861, Final residual = 9.04161e-10, No Iterations 17
Time = 0.9

nonePBiCG:  Solving for r, Initial residual = 0.00776643, Final residual = 6.39469e-10, No Iterations 18
Time = 0.95

nonePBiCG:  Solving for r, Initial residual = 0.00767356, Final residual = 8.13466e-10, No Iterations 18
Time = 1

nonePBiCG:  Solving for r, Initial residual = 0.00766418, Final residual = 3.02889e-10, No Iterations 18
Time = 1.05

nonePBiCG:  Solving for r, Initial residual = 0.00763292, Final residual = 5.88943e-10, No Iterations 19
Time = 1.1

nonePBiCG:  Solving for r, Initial residual = 0.00760137, Final residual = 3.956e-10, No Iterations 18
Time = 1.15

nonePBiCG:  Solving for r, Initial residual = 0.00760435, Final residual = 3.31934e-10, No Iterations 19
Time = 1.2

nonePBiCG:  Solving for r, Initial residual = 0.00758506, Final residual = 6.23086e-10, No Iterations 18
Time = 1.25

nonePBiCG:  Solving for r, Initial residual = 0.00757511, Final residual = 4.14885e-10, No Iterations 16
Time = 1.3

nonePBiCG:  Solving for r, Initial residual = 0.00755984, Final residual = 3.68421e-10, No Iterations 16
Time = 1.35

nonePBiCG:  Solving for r, Initial residual = 0.0075523, Final residual = 3.42987e-10, No Iterations 16
Time = 1.4

nonePBiCG:  Solving for r, Initial residual = 0.00753942, Final residual = 3.27145e-10, No Iterations 17
Time = 1.45

nonePBiCG:  Solving for r, Initial residual = 0.00752909, Final residual = 6.919e-10, No Iterations 17
Time = 1.5

nonePBiCG:  Solving for r, Initial residual = 0.00752626, Final residual = 3.93224e-10, No Iterations 17
Time = 1.55

nonePBiCG:  Solving for r, Initial residual = 0.00752092, Final residual = 6.68176e-10, No Iterations 15
Time = 1.6

nonePBiCG:  Solving for r, Initial residual = 0.00751938, Final residual = 5.92747e-10, No Iterations 16
Time = 1.65

nonePBiCG:  Solving for r, Initial residual = 0.00750961, Final residual = 9.9389e-10, No Iterations 15
Time = 1.7

nonePBiCG:  Solving for r, Initial residual = 0.00750723, Final residual = 3.84211e-10, No Iterations 16
Time = 1.75

nonePBiCG:  Solving for r, Initial residual = 0.00750323, Final residual = 3.72103e-10, No Iterations 16
Time = 1.8

nonePBiCG:  Solving for r, Initial residual = 0.00749924, Final residual = 8.22861e-10, No Iterations 14
Time = 1.85

nonePBiCG:  Solving for r, Initial residual = 0.00749867, Final residual = 5.67698e-10, No Iterations 14
Time = 1.9

nonePBiCG:  Solving for r, Initial residual = 0.00749779, Final residual = 4.06957e-10, No Iterations 16
Time = 1.95

nonePBiCG:  Solving for r, Initial residual = 0.00749826, Final residual = 4.29535e-10, No Iterations 14
Time = 2

nonePBiCG:  Solving for r, Initial residual = 0.00749402, Final residual = 9.82376e-10, No Iterations 13
Time = 2.05

nonePBiCG:  Solving for r, Initial residual = 0.00749505, Final residual = 5.60355e-10, No Iterations 14
Time = 2.1

nonePBiCG:  Solving for r, Initial residual = 0.0074928, Final residual = 3.79201e-10, No Iterations 14
Time = 2.15

nonePBiCG:  Solving for r, Initial residual = 0.00749248, Final residual = 3.74205e-10, No Iterations 14
Time = 2.2

nonePBiCG:  Solving for r, Initial residual = 0.00749378, Final residual = 5.6336e-10, No Iterations 14
Time = 2.25

nonePBiCG:  Solving for r, Initial residual = 0.00749441, Final residual = 1.41857e-10, No Iterations 16
Time = 2.3

nonePBiCG:  Solving for r, Initial residual = 0.00749614, Final residual = 8.71213e-10, No Iterations 13
Time = 2.35

nonePBiCG:  Solving for r, Initial residual = 0.00749525, Final residual = 3.98975e-10, No Iterations 13
Time = 2.4

nonePBiCG:  Solving for r, Initial residual = 0.0074965, Final residual = 5.05755e-10, No Iterations 14
Time = 2.45

nonePBiCG:  Solving for r, Initial residual = 0.00749631, Final residual = 3.61721e-10, No Iterations 14
Time = 2.5

nonePBiCG:  Solving for r, Initial residual = 0.00749759, Final residual = 9.16321e-10, No Iterations 12
Time = 2.55

nonePBiCG:  Solving for r, Initial residual = 0.0074994, Final residual = 1.26826e-10, No Iterations 14
Time = 2.6

nonePBiCG:  Solving for r, Initial residual = 0.00750153, Final residual = 4.71408e-10, No Iterations 13
Time = 2.65

nonePBiCG:  Solving for r, Initial residual = 0.00750311, Final residual = 3.04218e-10, No Iterations 14
Time = 2.7

nonePBiCG:  Solving for r, Initial residual = 0.00750507, Final residual = 2.78233e-10, No Iterations 13
Time = 2.75

nonePBiCG:  Solving for r, Initial residual = 0.00750724, Final residual = 5.18681e-10, No Iterations 12
Time = 2.8

nonePBiCG:  Solving for r, Initial residual = 0.00750794, Final residual = 4.13231e-10, No Iterations 13
Time = 2.85

nonePBiCG:  Solving for r, Initial residual = 0.00751046, Final residual = 5.04533e-10, No Iterations 12
Time = 2.9

nonePBiCG:  Solving for r, Initial residual = 0.00751247, Final residual = 5.10887e-10, No Iterations 14
Time = 2.95

nonePBiCG:  Solving for r, Initial residual = 0.00751445, Final residual = 4.2596e-10, No Iterations 13
Time = 3

nonePBiCG:  Solving for r, Initial residual = 0.00751679, Final residual = 8.75278e-10, No Iterations 12
Time = 3.05

nonePBiCG:  Solving for r, Initial residual = 0.00751915, Final residual = 8.27566e-10, No Iterations 12
Time = 3.1

nonePBiCG:  Solving for r, Initial residual = 0.0075218, Final residual = 6.72719e-10, No Iterations 11
Time = 3.15

nonePBiCG:  Solving for r, Initial residual = 0.00752377, Final residual = 3.76152e-10, No Iterations 12
Time = 3.2

nonePBiCG:  Solving for r, Initial residual = 0.00752594, Final residual = 2.47067e-10, No Iterations 12
Time = 3.25

nonePBiCG:  Solving for r, Initial residual = 0.00752846, Final residual = 4.05897e-10, No Iterations 12
Time = 3.3

nonePBiCG:  Solving for r, Initial residual = 0.00753072, Final residual = 1.10113e-10, No Iterations 13
Time = 3.35

nonePBiCG:  Solving for r, Initial residual = 0.00753335, Final residual = 2.43698e-10, No Iterations 12
Time = 3.4

nonePBiCG:  Solving for r, Initial residual = 0.00753627, Final residual = 6.61526e-10, No Iterations 11
Time = 3.45

nonePBiCG:  Solving for r, Initial residual = 0.00753869, Final residual = 4.18645e-10, No Iterations 11
Time = 3.5

nonePBiCG:  Solving for r, Initial residual = 0.00754137, Final residual = 4.23683e-10, No Iterations 11
Time = 3.55

nonePBiCG:  Solving for r, Initial residual = 0.00754378, Final residual = 6.64048e-10, No Iterations 11
Time = 3.6

nonePBiCG:  Solving for r, Initial residual = 0.00754564, Final residual = 8.34339e-10, No Iterations 11
Time = 3.65

nonePBiCG:  Solving for r, Initial residual = 0.00754843, Final residual = 2.07051e-10, No Iterations 12
Time = 3.7

nonePBiCG:  Solving for r, Initial residual = 0.00755107, Final residual = 8.27533e-10, No Iterations 11
Time = 3.75

nonePBiCG:  Solving for r, Initial residual = 0.00755354, Final residual = 6.33669e-10, No Iterations 11
Time = 3.8

nonePBiCG:  Solving for r, Initial residual = 0.00755646, Final residual = 2.41237e-10, No Iterations 12
Time = 3.85

nonePBiCG:  Solving for r, Initial residual = 0.00755878, Final residual = 7.72638e-10, No Iterations 11
Time = 3.9

nonePBiCG:  Solving for r, Initial residual = 0.00756205, Final residual = 5.25289e-10, No Iterations 11
Time = 3.95

nonePBiCG:  Solving for r, Initial residual = 0.0075643, Final residual = 7.08358e-10, No Iterations 10
Time = 4

nonePBiCG:  Solving for r, Initial residual = 0.00756684, Final residual = 7.50062e-10, No Iterations 10
Time = 4.05

nonePBiCG:  Solving for r, Initial residual = 0.00756953, Final residual = 5.99199e-10, No Iterations 11
Time = 4.1

nonePBiCG:  Solving for r, Initial residual = 0.0075718, Final residual = 8.2042e-10, No Iterations 10
Time = 4.15

nonePBiCG:  Solving for r, Initial residual = 0.00757458, Final residual = 6.23368e-10, No Iterations 11
Time = 4.2

nonePBiCG:  Solving for r, Initial residual = 0.00757723, Final residual = 4.77307e-10, No Iterations 11
Time = 4.25

nonePBiCG:  Solving for r, Initial residual = 0.00757973, Final residual = 5.83292e-10, No Iterations 10
Time = 4.3

nonePBiCG:  Solving for r, Initial residual = 0.00758246, Final residual = 6.16405e-10, No Iterations 10
Time = 4.35

nonePBiCG:  Solving for r, Initial residual = 0.00758522, Final residual = 5.4016e-10, No Iterations 11
Time = 4.4

nonePBiCG:  Solving for r, Initial residual = 0.00758735, Final residual = 8.90298e-10, No Iterations 10
Time = 4.45

nonePBiCG:  Solving for r, Initial residual = 0.00759035, Final residual = 2.87248e-10, No Iterations 10
Time = 4.5

nonePBiCG:  Solving for r, Initial residual = 0.00759276, Final residual = 2.35355e-10, No Iterations 11
Time = 4.55

nonePBiCG:  Solving for r, Initial residual = 0.00759548, Final residual = 5.42325e-10, No Iterations 10
Time = 4.6

nonePBiCG:  Solving for r, Initial residual = 0.00759815, Final residual = 7.11805e-10, No Iterations 10
Time = 4.65

nonePBiCG:  Solving for r, Initial residual = 0.00760033, Final residual = 3.72688e-10, No Iterations 12
Time = 4.7

nonePBiCG:  Solving for r, Initial residual = 0.00760323, Final residual = 8.47919e-10, No Iterations 10
Time = 4.75

nonePBiCG:  Solving for r, Initial residual = 0.00760547, Final residual = 1.61588e-10, No Iterations 11
Time = 4.8

nonePBiCG:  Solving for r, Initial residual = 0.0076081, Final residual = 3.92454e-10, No Iterations 10
Time = 4.85

nonePBiCG:  Solving for r, Initial residual = 0.00761058, Final residual = 5.15295e-10, No Iterations 10
Time = 4.9

nonePBiCG:  Solving for r, Initial residual = 0.00761302, Final residual = 3.10731e-10, No Iterations 10
Time = 4.95

nonePBiCG:  Solving for r, Initial residual = 0.00761585, Final residual = 1.97346e-10, No Iterations 11
Time = 5

nonePBiCG:  Solving for r, Initial residual = 0.00761855, Final residual = 4.33217e-10, No Iterations 10
Time = 5.05

nonePBiCG:  Solving for r, Initial residual = 0.00762084, Final residual = 4.87682e-10, No Iterations 10
Time = 5.1

nonePBiCG:  Solving for r, Initial residual = 0.00762329, Final residual = 9.62918e-10, No Iterations 10
Time = 5.15

nonePBiCG:  Solving for r, Initial residual = 0.00762577, Final residual = 9.77657e-10, No Iterations 9
Time = 5.2

nonePBiCG:  Solving for r, Initial residual = 0.00762817, Final residual = 2.83944e-10, No Iterations 11
Time = 5.25

nonePBiCG:  Solving for r, Initial residual = 0.00763083, Final residual = 7.2366e-10, No Iterations 9
Time = 5.3

nonePBiCG:  Solving for r, Initial residual = 0.0076329, Final residual = 2.17088e-10, No Iterations 11
Time = 5.35

nonePBiCG:  Solving for r, Initial residual = 0.00763574, Final residual = 8.46249e-10, No Iterations 9
Time = 5.4

nonePBiCG:  Solving for r, Initial residual = 0.00763806, Final residual = 9.79301e-10, No Iterations 10
Time = 5.45

nonePBiCG:  Solving for r, Initial residual = 0.00764061, Final residual = 6.19995e-10, No Iterations 10
Time = 5.5

nonePBiCG:  Solving for r, Initial residual = 0.00764317, Final residual = 4.24757e-10, No Iterations 11
Time = 5.55

nonePBiCG:  Solving for r, Initial residual = 0.00764533, Final residual = 4.26032e-10, No Iterations 10
Time = 5.6

nonePBiCG:  Solving for r, Initial residual = 0.00764813, Final residual = 2.40523e-10, No Iterations 10
Time = 5.65

nonePBiCG:  Solving for r, Initial residual = 0.00765028, Final residual = 1.06145e-10, No Iterations 11
Time = 5.7

nonePBiCG:  Solving for r, Initial residual = 0.00765256, Final residual = 8.15008e-10, No Iterations 9
Time = 5.75

nonePBiCG:  Solving for r, Initial residual = 0.00765493, Final residual = 9.15346e-10, No Iterations 10
Time = 5.8

nonePBiCG:  Solving for r, Initial residual = 0.00765734, Final residual = 5.86245e-10, No Iterations 10
Time = 5.85

nonePBiCG:  Solving for r, Initial residual = 0.00765974, Final residual = 5.73978e-10, No Iterations 10
Time = 5.9

nonePBiCG:  Solving for r, Initial residual = 0.00766235, Final residual = 3.57342e-10, No Iterations 10
Time = 5.95

nonePBiCG:  Solving for r, Initial residual = 0.00766436, Final residual = 9.96989e-10, No Iterations 10
Time = 6

nonePBiCG:  Solving for r, Initial residual = 0.007667, Final residual = 5.55024e-10, No Iterations 10
Time = 6.05

nonePBiCG:  Solving for r, Initial residual = 0.00766919, Final residual = 7.28184e-10, No Iterations 10
Time = 6.1

nonePBiCG:  Solving for r, Initial residual = 0.00767138, Final residual = 1.24061e-10, No Iterations 11
Time = 6.15

nonePBiCG:  Solving for r, Initial residual = 0.00767373, Final residual = 7.97905e-10, No Iterations 10
Time = 6.2

nonePBiCG:  Solving for r, Initial residual = 0.00767581, Final residual = 3.74443e-10, No Iterations 12
Time = 6.25

nonePBiCG:  Solving for r, Initial residual = 0.00767832, Final residual = 3.6526e-10, No Iterations 10
Time = 6.3

nonePBiCG:  Solving for r, Initial residual = 0.00768059, Final residual = 3.89177e-10, No Iterations 12
Time = 6.35

nonePBiCG:  Solving for r, Initial residual = 0.0076827, Final residual = 3.49688e-10, No Iterations 10
Time = 6.4

nonePBiCG:  Solving for r, Initial residual = 0.00768516, Final residual = 4.51303e-10, No Iterations 11
Time = 6.45

nonePBiCG:  Solving for r, Initial residual = 0.0076872, Final residual = 9.63767e-10, No Iterations 9
Time = 6.5

nonePBiCG:  Solving for r, Initial residual = 0.00768978, Final residual = 2.67743e-10, No Iterations 10
Time = 6.55

nonePBiCG:  Solving for r, Initial residual = 0.00769168, Final residual = 7.37677e-10, No Iterations 10
Time = 6.6

nonePBiCG:  Solving for r, Initial residual = 0.0076938, Final residual = 8.14471e-10, No Iterations 11
Time = 6.65

nonePBiCG:  Solving for r, Initial residual = 0.00769589, Final residual = 4.17687e-10, No Iterations 11
Time = 6.7

nonePBiCG:  Solving for r, Initial residual = 0.00769818, Final residual = 1.35011e-10, No Iterations 12
Time = 6.75

nonePBiCG:  Solving for r, Initial residual = 0.00770019, Final residual = 4.27807e-10, No Iterations 11
Time = 6.8

nonePBiCG:  Solving for r, Initial residual = 0.00770266, Final residual = 1.66931e-10, No Iterations 12
Time = 6.85

nonePBiCG:  Solving for r, Initial residual = 0.0077044, Final residual = 2.28293e-10, No Iterations 11
Time = 6.9

nonePBiCG:  Solving for r, Initial residual = 0.00770695, Final residual = 1.17931e-10, No Iterations 12
Time = 6.95

nonePBiCG:  Solving for r, Initial residual = 0.00770885, Final residual = 2.37641e-10, No Iterations 11
Time = 7

nonePBiCG:  Solving for r, Initial residual = 0.00771084, Final residual = 1.19813e-10, No Iterations 12
Time = 7.05

nonePBiCG:  Solving for r, Initial residual = 0.00771289, Final residual = 8.98676e-10, No Iterations 10
Time = 7.1

nonePBiCG:  Solving for r, Initial residual = 0.0077148, Final residual = 1.65887e-10, No Iterations 12
Time = 7.15

nonePBiCG:  Solving for r, Initial residual = 0.00771699, Final residual = 3.18102e-10, No Iterations 11
Time = 7.2

nonePBiCG:  Solving for r, Initial residual = 0.00771913, Final residual = 9.70843e-10, No Iterations 10
Time = 7.25

nonePBiCG:  Solving for r, Initial residual = 0.00772135, Final residual = 6.12873e-10, No Iterations 11
Time = 7.3

nonePBiCG:  Solving for r, Initial residual = 0.0077232, Final residual = 2.04198e-10, No Iterations 11
Time = 7.35

nonePBiCG:  Solving for r, Initial residual = 0.00772537, Final residual = 5.63589e-10, No Iterations 11
Time = 7.4

nonePBiCG:  Solving for r, Initial residual = 0.00772731, Final residual = 1.68427e-10, No Iterations 11
Time = 7.45

nonePBiCG:  Solving for r, Initial residual = 0.00772933, Final residual = 5.5705e-10, No Iterations 11
Time = 7.5

nonePBiCG:  Solving for r, Initial residual = 0.00773084, Final residual = 1.98339e-10, No Iterations 11
Time = 7.55

nonePBiCG:  Solving for r, Initial residual = 0.00773303, Final residual = 6.65088e-10, No Iterations 11
Time = 7.6

nonePBiCG:  Solving for r, Initial residual = 0.00773468, Final residual = 3.25792e-10, No Iterations 11
Time = 7.65

nonePBiCG:  Solving for r, Initial residual = 0.00773686, Final residual = 7.39899e-10, No Iterations 10
Time = 7.7

nonePBiCG:  Solving for r, Initial residual = 0.00773929, Final residual = 4.92307e-10, No Iterations 11
Time = 7.75

nonePBiCG:  Solving for r, Initial residual = 0.00774059, Final residual = 8.65812e-10, No Iterations 10
Time = 7.8

nonePBiCG:  Solving for r, Initial residual = 0.007743, Final residual = 3.80128e-10, No Iterations 11
Time = 7.85

nonePBiCG:  Solving for r, Initial residual = 0.00774445, Final residual = 8.02925e-10, No Iterations 10
Time = 7.9

nonePBiCG:  Solving for r, Initial residual = 0.0077464, Final residual = 3.84748e-10, No Iterations 11
Time = 7.95

nonePBiCG:  Solving for r, Initial residual = 0.007748, Final residual = 9.00898e-10, No Iterations 10
Time = 8

nonePBiCG:  Solving for r, Initial residual = 0.00774982, Final residual = 3.99006e-10, No Iterations 11
Time = 8.05

nonePBiCG:  Solving for r, Initial residual = 0.00775156, Final residual = 3.22649e-10, No Iterations 11
Time = 8.1

nonePBiCG:  Solving for r, Initial residual = 0.00775359, Final residual = 7.33476e-10, No Iterations 10
Time = 8.15

nonePBiCG:  Solving for r, Initial residual = 0.00775582, Final residual = 4.54982e-10, No Iterations 11
Time = 8.2

nonePBiCG:  Solving for r, Initial residual = 0.00775719, Final residual = 8.60229e-10, No Iterations 10
Time = 8.25

nonePBiCG:  Solving for r, Initial residual = 0.00775918, Final residual = 3.40603e-10, No Iterations 11
Time = 8.3

nonePBiCG:  Solving for r, Initial residual = 0.0077607, Final residual = 7.8623e-10, No Iterations 10
Time = 8.35

nonePBiCG:  Solving for r, Initial residual = 0.00776263, Final residual = 3.37518e-10, No Iterations 11
Time = 8.4

nonePBiCG:  Solving for r, Initial residual = 0.0077637, Final residual = 9.70542e-10, No Iterations 10
Time = 8.45

nonePBiCG:  Solving for r, Initial residual = 0.00776577, Final residual = 3.50652e-10, No Iterations 11
Time = 8.5

nonePBiCG:  Solving for r, Initial residual = 0.00776695, Final residual = 3.37383e-10, No Iterations 11
Time = 8.55

nonePBiCG:  Solving for r, Initial residual = 0.0077692, Final residual = 7.54062e-10, No Iterations 10
Time = 8.6

nonePBiCG:  Solving for r, Initial residual = 0.00777155, Final residual = 4.94399e-10, No Iterations 11
Time = 8.65

nonePBiCG:  Solving for r, Initial residual = 0.00777236, Final residual = 8.81397e-10, No Iterations 10
Time = 8.7

nonePBiCG:  Solving for r, Initial residual = 0.00777452, Final residual = 3.4023e-10, No Iterations 11
Time = 8.75

nonePBiCG:  Solving for r, Initial residual = 0.00777547, Final residual = 8.96931e-10, No Iterations 10
Time = 8.8

nonePBiCG:  Solving for r, Initial residual = 0.00777743, Final residual = 3.32997e-10, No Iterations 11
Time = 8.85

nonePBiCG:  Solving for r, Initial residual = 0.00777852, Final residual = 3.63969e-10, No Iterations 11
Time = 8.9

nonePBiCG:  Solving for r, Initial residual = 0.0077803, Final residual = 6.51256e-10, No Iterations 10
Time = 8.95

nonePBiCG:  Solving for r, Initial residual = 0.00778278, Final residual = 5.16087e-10, No Iterations 11
Time = 9

nonePBiCG:  Solving for r, Initial residual = 0.00778349, Final residual = 8.32815e-10, No Iterations 10
Time = 9.05

nonePBiCG:  Solving for r, Initial residual = 0.00778572, Final residual = 3.65529e-10, No Iterations 11
Time = 9.1

nonePBiCG:  Solving for r, Initial residual = 0.00778658, Final residual = 9.2563e-10, No Iterations 10
Time = 9.15

nonePBiCG:  Solving for r, Initial residual = 0.00778827, Final residual = 3.46893e-10, No Iterations 11
Time = 9.2

nonePBiCG:  Solving for r, Initial residual = 0.00778927, Final residual = 4.0029e-10, No Iterations 11
Time = 9.25

nonePBiCG:  Solving for r, Initial residual = 0.00779108, Final residual = 6.44418e-10, No Iterations 10
Time = 9.3

nonePBiCG:  Solving for r, Initial residual = 0.00779329, Final residual = 5.463e-10, No Iterations 11
Time = 9.35

nonePBiCG:  Solving for r, Initial residual = 0.00779389, Final residual = 7.68435e-10, No Iterations 10
Time = 9.4

nonePBiCG:  Solving for r, Initial residual = 0.00779596, Final residual = 4.30448e-10, No Iterations 11
Time = 9.45

nonePBiCG:  Solving for r, Initial residual = 0.00779672, Final residual = 8.67791e-10, No Iterations 10
Time = 9.5

nonePBiCG:  Solving for r, Initial residual = 0.00779877, Final residual = 3.98379e-10, No Iterations 11
Time = 9.55

nonePBiCG:  Solving for r, Initial residual = 0.00779918, Final residual = 4.64794e-10, No Iterations 11
Time = 9.6

nonePBiCG:  Solving for r, Initial residual = 0.00780107, Final residual = 3.95369e-10, No Iterations 11
Time = 9.65

nonePBiCG:  Solving for r, Initial residual = 0.00780151, Final residual = 5.28776e-10, No Iterations 11
Time = 9.7

nonePBiCG:  Solving for r, Initial residual = 0.00780374, Final residual = 7.87308e-10, No Iterations 10
Time = 9.75

nonePBiCG:  Solving for r, Initial residual = 0.00780598, Final residual = 6.63925e-10, No Iterations 11
Time = 9.8

nonePBiCG:  Solving for r, Initial residual = 0.00780604, Final residual = 9.01814e-10, No Iterations 10
Time = 9.85

nonePBiCG:  Solving for r, Initial residual = 0.00780829, Final residual = 4.92952e-10, No Iterations 11
Time = 9.9

nonePBiCG:  Solving for r, Initial residual = 0.0078085, Final residual = 5.20552e-10, No Iterations 11
Time = 9.95

nonePBiCG:  Solving for r, Initial residual = 0.00781052, Final residual = 4.1877e-10, No Iterations 11
Time = 10

nonePBiCG:  Solving for r, Initial residual = 0.00781085, Final residual = 6.21413e-10, No Iterations 11
End

