/*---------------------------------------------------------------------------*\
| =========                 |                                                 |
| \\      /  F ield         | OpenFOAM: The Open Source CFD Toolbox           |
|  \\    /   O peration     | Version:  v2006                                 |
|   \\  /    A nd           | Website:  www.openfoam.com                      |
|    \\/     M anipulation  |                                                 |
\*---------------------------------------------------------------------------*/
Build  : _b45f8f6f58-20200629 OPENFOAM=2006
Arch   : "LSB;label=32;scalar=64"
Exec   : transpDomFoam
Date   : Aug 26 2020
Time   : 14:43:01
Host   : bounty.maths.sissa.it
PID    : 7627
I/O    : uncollated
Case   : /u/d/dpapapic/OpenFOAM/dpapapic-v2006/run/test/chap2/batch2/sim4
nProcs : 1
trapFpe: Floating point exception trapping enabled (FOAM_SIGFPE).
fileModificationChecking : Monitoring run-time modified files using timeStampMaster (fileModificationSkew 5, maxFileModificationPolls 20)
allowSystemOperations : Allowing user-supplied system call operations

// * * * * * * * * * * * * * * * * * * * * * * * * * * * * * * * * * * * * * //
Create time

Create mesh for time = 0

Reading-in field r

Reading-in field U

Reading/calculating face flux field phi

Reading-in constant/transportProperties

Reading-in entries of keyword nu


Computing transported (scalar) field

Courant Number mean: 0.166667 max: 0.166667
Time = 0.01

nonePBiCG:  Solving for r, Initial residual = 0.00333853, Final residual = 7.47103e-10, No Iterations 10
Time = 0.02

nonePBiCG:  Solving for r, Initial residual = 0.00267681, Final residual = 4.62947e-10, No Iterations 10
Time = 0.03

nonePBiCG:  Solving for r, Initial residual = 0.0022449, Final residual = 4.52739e-10, No Iterations 10
Time = 0.04

nonePBiCG:  Solving for r, Initial residual = 0.00196069, Final residual = 8.21943e-10, No Iterations 10
Time = 0.05

nonePBiCG:  Solving for r, Initial residual = 0.0017721, Final residual = 2.71147e-10, No Iterations 10
Time = 0.06

nonePBiCG:  Solving for r, Initial residual = 0.00164549, Final residual = 2.17894e-10, No Iterations 10
Time = 0.07

nonePBiCG:  Solving for r, Initial residual = 0.00155968, Final residual = 8.09098e-10, No Iterations 9
Time = 0.08

nonePBiCG:  Solving for r, Initial residual = 0.00153794, Final residual = 1.34035e-10, No Iterations 10
Time = 0.09

nonePBiCG:  Solving for r, Initial residual = 0.0015222, Final residual = 5.6017e-10, No Iterations 9
Time = 0.1

nonePBiCG:  Solving for r, Initial residual = 0.00150839, Final residual = 4.55111e-10, No Iterations 9
Time = 0.11

nonePBiCG:  Solving for r, Initial residual = 0.0014963, Final residual = 4.20783e-10, No Iterations 9
Time = 0.12

nonePBiCG:  Solving for r, Initial residual = 0.001486, Final residual = 6.06297e-10, No Iterations 9
Time = 0.13

nonePBiCG:  Solving for r, Initial residual = 0.00147834, Final residual = 2.42544e-10, No Iterations 9
Time = 0.14

nonePBiCG:  Solving for r, Initial residual = 0.00147643, Final residual = 9.81461e-10, No Iterations 8
Time = 0.15

nonePBiCG:  Solving for r, Initial residual = 0.00147452, Final residual = 8.43234e-10, No Iterations 8
Time = 0.16

nonePBiCG:  Solving for r, Initial residual = 0.00147285, Final residual = 4.37951e-10, No Iterations 9
Time = 0.17

nonePBiCG:  Solving for r, Initial residual = 0.00147152, Final residual = 6.75188e-10, No Iterations 8
Time = 0.18

nonePBiCG:  Solving for r, Initial residual = 0.00147029, Final residual = 8.02934e-10, No Iterations 8
Time = 0.19

nonePBiCG:  Solving for r, Initial residual = 0.00146938, Final residual = 4.25244e-10, No Iterations 8
Time = 0.2

nonePBiCG:  Solving for r, Initial residual = 0.00146959, Final residual = 3.90581e-10, No Iterations 8
Time = 0.21

nonePBiCG:  Solving for r, Initial residual = 0.00146993, Final residual = 3.37615e-10, No Iterations 8
Time = 0.22

nonePBiCG:  Solving for r, Initial residual = 0.0014702, Final residual = 8.99429e-10, No Iterations 7
Time = 0.23

nonePBiCG:  Solving for r, Initial residual = 0.00147038, Final residual = 8.58953e-10, No Iterations 7
Time = 0.24

nonePBiCG:  Solving for r, Initial residual = 0.00147069, Final residual = 1.2513e-10, No Iterations 8
Time = 0.25

nonePBiCG:  Solving for r, Initial residual = 0.00147111, Final residual = 1.15035e-10, No Iterations 8
Time = 0.26

nonePBiCG:  Solving for r, Initial residual = 0.00147161, Final residual = 6.10158e-10, No Iterations 7
Time = 0.27

nonePBiCG:  Solving for r, Initial residual = 0.00147203, Final residual = 3.35296e-10, No Iterations 7
Time = 0.28

nonePBiCG:  Solving for r, Initial residual = 0.00147252, Final residual = 3.1944e-10, No Iterations 7
Time = 0.29

nonePBiCG:  Solving for r, Initial residual = 0.00147312, Final residual = 2.78691e-10, No Iterations 7
Time = 0.3

nonePBiCG:  Solving for r, Initial residual = 0.0014737, Final residual = 8.12828e-10, No Iterations 7
Time = 0.31

nonePBiCG:  Solving for r, Initial residual = 0.00147422, Final residual = 4.02645e-10, No Iterations 7
Time = 0.32

nonePBiCG:  Solving for r, Initial residual = 0.00147483, Final residual = 8.18599e-10, No Iterations 7
Time = 0.33

nonePBiCG:  Solving for r, Initial residual = 0.00147553, Final residual = 9.56811e-10, No Iterations 6
Time = 0.34

nonePBiCG:  Solving for r, Initial residual = 0.00147625, Final residual = 8.10982e-10, No Iterations 6
Time = 0.35

nonePBiCG:  Solving for r, Initial residual = 0.00147681, Final residual = 6.74494e-10, No Iterations 6
Time = 0.36

nonePBiCG:  Solving for r, Initial residual = 0.00147728, Final residual = 5.76555e-10, No Iterations 6
Time = 0.37

nonePBiCG:  Solving for r, Initial residual = 0.00147782, Final residual = 4.83941e-10, No Iterations 6
Time = 0.38

nonePBiCG:  Solving for r, Initial residual = 0.00147847, Final residual = 4.07914e-10, No Iterations 6
Time = 0.39

nonePBiCG:  Solving for r, Initial residual = 0.00147905, Final residual = 3.46739e-10, No Iterations 6
Time = 0.4

nonePBiCG:  Solving for r, Initial residual = 0.00147955, Final residual = 3.04641e-10, No Iterations 6
Time = 0.41

nonePBiCG:  Solving for r, Initial residual = 0.00148013, Final residual = 3.06399e-10, No Iterations 6
Time = 0.42

nonePBiCG:  Solving for r, Initial residual = 0.00148079, Final residual = 3.78729e-10, No Iterations 6
Time = 0.43

nonePBiCG:  Solving for r, Initial residual = 0.00148145, Final residual = 4.45253e-10, No Iterations 6
Time = 0.44

nonePBiCG:  Solving for r, Initial residual = 0.00148199, Final residual = 4.43254e-10, No Iterations 6
Time = 0.45

nonePBiCG:  Solving for r, Initial residual = 0.00148247, Final residual = 3.92437e-10, No Iterations 6
Time = 0.46

nonePBiCG:  Solving for r, Initial residual = 0.00148298, Final residual = 3.29181e-10, No Iterations 6
Time = 0.47

nonePBiCG:  Solving for r, Initial residual = 0.00148357, Final residual = 2.66055e-10, No Iterations 6
Time = 0.48

nonePBiCG:  Solving for r, Initial residual = 0.00148409, Final residual = 2.11161e-10, No Iterations 6
Time = 0.49

nonePBiCG:  Solving for r, Initial residual = 0.00148456, Final residual = 1.72651e-10, No Iterations 6
Time = 0.5

nonePBiCG:  Solving for r, Initial residual = 0.0014851, Final residual = 1.63458e-10, No Iterations 6
Time = 0.51

nonePBiCG:  Solving for r, Initial residual = 0.00148571, Final residual = 2.19903e-10, No Iterations 6
Time = 0.52

nonePBiCG:  Solving for r, Initial residual = 0.00148633, Final residual = 2.78803e-10, No Iterations 6
Time = 0.53

nonePBiCG:  Solving for r, Initial residual = 0.00148682, Final residual = 8.24522e-10, No Iterations 5
Time = 0.54

nonePBiCG:  Solving for r, Initial residual = 0.00148724, Final residual = 2.33153e-10, No Iterations 6
Time = 0.55

nonePBiCG:  Solving for r, Initial residual = 0.00148771, Final residual = 1.91367e-10, No Iterations 6
Time = 0.56

nonePBiCG:  Solving for r, Initial residual = 0.00148825, Final residual = 1.47356e-10, No Iterations 6
Time = 0.57

nonePBiCG:  Solving for r, Initial residual = 0.00148876, Final residual = 9.75178e-11, No Iterations 6
Time = 0.58

nonePBiCG:  Solving for r, Initial residual = 0.00148921, Final residual = 1.16324e-10, No Iterations 6
Time = 0.59

nonePBiCG:  Solving for r, Initial residual = 0.0014897, Final residual = 1.61428e-11, No Iterations 7
Time = 0.6

nonePBiCG:  Solving for r, Initial residual = 0.00149026, Final residual = 2.89492e-10, No Iterations 6
Time = 0.61

nonePBiCG:  Solving for r, Initial residual = 0.00149084, Final residual = 2.01362e-10, No Iterations 6
Time = 0.62

nonePBiCG:  Solving for r, Initial residual = 0.00149129, Final residual = 1.59047e-10, No Iterations 6
Time = 0.63

nonePBiCG:  Solving for r, Initial residual = 0.00149166, Final residual = 1.29278e-10, No Iterations 6
Time = 0.64

nonePBiCG:  Solving for r, Initial residual = 0.00149209, Final residual = 9.41109e-10, No Iterations 5
Time = 0.65

nonePBiCG:  Solving for r, Initial residual = 0.00149258, Final residual = 8.79637e-10, No Iterations 5
Time = 0.66

nonePBiCG:  Solving for r, Initial residual = 0.00149309, Final residual = 8.26987e-10, No Iterations 5
Time = 0.67

nonePBiCG:  Solving for r, Initial residual = 0.00149355, Final residual = 7.7835e-10, No Iterations 5
Time = 0.68

nonePBiCG:  Solving for r, Initial residual = 0.001494, Final residual = 7.32069e-10, No Iterations 5
Time = 0.69

nonePBiCG:  Solving for r, Initial residual = 0.00149451, Final residual = 6.88781e-10, No Iterations 5
Time = 0.7

nonePBiCG:  Solving for r, Initial residual = 0.00149501, Final residual = 6.53215e-10, No Iterations 5
Time = 0.71

nonePBiCG:  Solving for r, Initial residual = 0.00149543, Final residual = 6.18571e-10, No Iterations 5
Time = 0.72

nonePBiCG:  Solving for r, Initial residual = 0.0014958, Final residual = 5.84489e-10, No Iterations 5
Time = 0.73

nonePBiCG:  Solving for r, Initial residual = 0.0014962, Final residual = 5.53334e-10, No Iterations 5
Time = 0.74

nonePBiCG:  Solving for r, Initial residual = 0.00149665, Final residual = 5.2733e-10, No Iterations 5
Time = 0.75

nonePBiCG:  Solving for r, Initial residual = 0.00149717, Final residual = 5.01326e-10, No Iterations 5
Time = 0.76

nonePBiCG:  Solving for r, Initial residual = 0.00149765, Final residual = 4.7586e-10, No Iterations 5
Time = 0.77

nonePBiCG:  Solving for r, Initial residual = 0.00149808, Final residual = 4.52034e-10, No Iterations 5
Time = 0.78

nonePBiCG:  Solving for r, Initial residual = 0.00149848, Final residual = 4.32706e-10, No Iterations 5
Time = 0.79

nonePBiCG:  Solving for r, Initial residual = 0.00149888, Final residual = 4.13171e-10, No Iterations 5
Time = 0.8

nonePBiCG:  Solving for r, Initial residual = 0.00149933, Final residual = 3.93652e-10, No Iterations 5
Time = 0.81

nonePBiCG:  Solving for r, Initial residual = 0.00149973, Final residual = 3.74945e-10, No Iterations 5
Time = 0.82

nonePBiCG:  Solving for r, Initial residual = 0.0015001, Final residual = 3.59612e-10, No Iterations 5
Time = 0.83

nonePBiCG:  Solving for r, Initial residual = 0.00150052, Final residual = 3.44709e-10, No Iterations 5
Time = 0.84

nonePBiCG:  Solving for r, Initial residual = 0.001501, Final residual = 3.29691e-10, No Iterations 5
Time = 0.85

nonePBiCG:  Solving for r, Initial residual = 0.0015015, Final residual = 3.15102e-10, No Iterations 5
Time = 0.86

nonePBiCG:  Solving for r, Initial residual = 0.00150189, Final residual = 3.02652e-10, No Iterations 5
Time = 0.87

nonePBiCG:  Solving for r, Initial residual = 0.00150221, Final residual = 2.90619e-10, No Iterations 5
Time = 0.88

nonePBiCG:  Solving for r, Initial residual = 0.00150258, Final residual = 2.78939e-10, No Iterations 5
Time = 0.89

nonePBiCG:  Solving for r, Initial residual = 0.00150301, Final residual = 2.67399e-10, No Iterations 5
Time = 0.9

nonePBiCG:  Solving for r, Initial residual = 0.00150345, Final residual = 2.57675e-10, No Iterations 5
Time = 0.91

nonePBiCG:  Solving for r, Initial residual = 0.00150385, Final residual = 2.47746e-10, No Iterations 5
Time = 0.92

nonePBiCG:  Solving for r, Initial residual = 0.00150425, Final residual = 2.38268e-10, No Iterations 5
Time = 0.93

nonePBiCG:  Solving for r, Initial residual = 0.00150467, Final residual = 2.28844e-10, No Iterations 5
Time = 0.94

nonePBiCG:  Solving for r, Initial residual = 0.00150509, Final residual = 2.2109e-10, No Iterations 5
Time = 0.95

nonePBiCG:  Solving for r, Initial residual = 0.00150546, Final residual = 2.13308e-10, No Iterations 5
Time = 0.96

nonePBiCG:  Solving for r, Initial residual = 0.00150581, Final residual = 2.05374e-10, No Iterations 5
Time = 0.97

nonePBiCG:  Solving for r, Initial residual = 0.00150615, Final residual = 1.97853e-10, No Iterations 5
Time = 0.98

nonePBiCG:  Solving for r, Initial residual = 0.00150655, Final residual = 1.9134e-10, No Iterations 5
Time = 0.99

nonePBiCG:  Solving for r, Initial residual = 0.001507, Final residual = 1.8499e-10, No Iterations 5
Time = 1

nonePBiCG:  Solving for r, Initial residual = 0.00150745, Final residual = 1.786e-10, No Iterations 5
Time = 1.01

nonePBiCG:  Solving for r, Initial residual = 0.00150781, Final residual = 1.72172e-10, No Iterations 5
Time = 1.02

nonePBiCG:  Solving for r, Initial residual = 0.00150813, Final residual = 1.66715e-10, No Iterations 5
Time = 1.03

nonePBiCG:  Solving for r, Initial residual = 0.00150848, Final residual = 1.61699e-10, No Iterations 5
Time = 1.04

nonePBiCG:  Solving for r, Initial residual = 0.00150888, Final residual = 1.56524e-10, No Iterations 5
Time = 1.05

nonePBiCG:  Solving for r, Initial residual = 0.00150927, Final residual = 1.51237e-10, No Iterations 5
Time = 1.06

nonePBiCG:  Solving for r, Initial residual = 0.00150963, Final residual = 1.4619e-10, No Iterations 5
Time = 1.07

nonePBiCG:  Solving for r, Initial residual = 0.00151, Final residual = 1.42155e-10, No Iterations 5
Time = 1.08

nonePBiCG:  Solving for r, Initial residual = 0.00151042, Final residual = 1.38027e-10, No Iterations 5
Time = 1.09

nonePBiCG:  Solving for r, Initial residual = 0.00151083, Final residual = 1.33773e-10, No Iterations 5
Time = 1.1

nonePBiCG:  Solving for r, Initial residual = 0.00151116, Final residual = 1.29457e-10, No Iterations 5
Time = 1.11

nonePBiCG:  Solving for r, Initial residual = 0.00151147, Final residual = 1.25812e-10, No Iterations 5
Time = 1.12

nonePBiCG:  Solving for r, Initial residual = 0.00151179, Final residual = 1.22369e-10, No Iterations 5
Time = 1.13

nonePBiCG:  Solving for r, Initial residual = 0.00151217, Final residual = 1.18987e-10, No Iterations 5
Time = 1.14

nonePBiCG:  Solving for r, Initial residual = 0.00151259, Final residual = 1.15509e-10, No Iterations 5
Time = 1.15

nonePBiCG:  Solving for r, Initial residual = 0.001513, Final residual = 1.12331e-10, No Iterations 5
Time = 1.16

nonePBiCG:  Solving for r, Initial residual = 0.00151335, Final residual = 1.09346e-10, No Iterations 5
Time = 1.17

nonePBiCG:  Solving for r, Initial residual = 0.00151366, Final residual = 1.06409e-10, No Iterations 5
Time = 1.18

nonePBiCG:  Solving for r, Initial residual = 0.00151398, Final residual = 1.03528e-10, No Iterations 5
Time = 1.19

nonePBiCG:  Solving for r, Initial residual = 0.00151436, Final residual = 1.00751e-10, No Iterations 5
Time = 1.2

nonePBiCG:  Solving for r, Initial residual = 0.00151472, Final residual = 9.84016e-11, No Iterations 5
Time = 1.21

nonePBiCG:  Solving for r, Initial residual = 0.00151505, Final residual = 9.59499e-11, No Iterations 5
Time = 1.22

nonePBiCG:  Solving for r, Initial residual = 0.00151541, Final residual = 9.34806e-11, No Iterations 5
Time = 1.23

nonePBiCG:  Solving for r, Initial residual = 0.0015158, Final residual = 9.1113e-11, No Iterations 5
Time = 1.24

nonePBiCG:  Solving for r, Initial residual = 0.00151619, Final residual = 8.89948e-11, No Iterations 5
Time = 1.25

nonePBiCG:  Solving for r, Initial residual = 0.00151651, Final residual = 8.70002e-11, No Iterations 5
Time = 1.26

nonePBiCG:  Solving for r, Initial residual = 0.00151679, Final residual = 8.49701e-11, No Iterations 5
Time = 1.27

nonePBiCG:  Solving for r, Initial residual = 0.0015171, Final residual = 8.28989e-11, No Iterations 5
Time = 1.28

nonePBiCG:  Solving for r, Initial residual = 0.00151745, Final residual = 8.09782e-11, No Iterations 5
Time = 1.29

nonePBiCG:  Solving for r, Initial residual = 0.00151785, Final residual = 7.94052e-11, No Iterations 5
Time = 1.3

nonePBiCG:  Solving for r, Initial residual = 0.00151824, Final residual = 7.77537e-11, No Iterations 5
Time = 1.31

nonePBiCG:  Solving for r, Initial residual = 0.00151857, Final residual = 7.6036e-11, No Iterations 5
Time = 1.32

nonePBiCG:  Solving for r, Initial residual = 0.00151886, Final residual = 7.43121e-11, No Iterations 5
Time = 1.33

nonePBiCG:  Solving for r, Initial residual = 0.00151916, Final residual = 7.27915e-11, No Iterations 5
Time = 1.34

nonePBiCG:  Solving for r, Initial residual = 0.00151952, Final residual = 7.15088e-11, No Iterations 5
Time = 1.35

nonePBiCG:  Solving for r, Initial residual = 0.00151987, Final residual = 7.01604e-11, No Iterations 5
Time = 1.36

nonePBiCG:  Solving for r, Initial residual = 0.00152019, Final residual = 6.87666e-11, No Iterations 5
Time = 1.37

nonePBiCG:  Solving for r, Initial residual = 0.00152052, Final residual = 6.73353e-11, No Iterations 5
Time = 1.38

nonePBiCG:  Solving for r, Initial residual = 0.00152089, Final residual = 6.61062e-11, No Iterations 5
Time = 1.39

nonePBiCG:  Solving for r, Initial residual = 0.00152124, Final residual = 6.50424e-11, No Iterations 5
Time = 1.4

nonePBiCG:  Solving for r, Initial residual = 0.00152155, Final residual = 6.39711e-11, No Iterations 5
Time = 1.41

nonePBiCG:  Solving for r, Initial residual = 0.00152183, Final residual = 6.28506e-11, No Iterations 5
Time = 1.42

nonePBiCG:  Solving for r, Initial residual = 0.00152212, Final residual = 6.16916e-11, No Iterations 5
Time = 1.43

nonePBiCG:  Solving for r, Initial residual = 0.00152246, Final residual = 6.07652e-11, No Iterations 5
Time = 1.44

nonePBiCG:  Solving for r, Initial residual = 0.00152283, Final residual = 9.90312e-10, No Iterations 4
Time = 1.45

nonePBiCG:  Solving for r, Initial residual = 0.00152322, Final residual = 9.73282e-10, No Iterations 4
Time = 1.46

nonePBiCG:  Solving for r, Initial residual = 0.00152353, Final residual = 9.55514e-10, No Iterations 4
Time = 1.47

nonePBiCG:  Solving for r, Initial residual = 0.00152378, Final residual = 9.38129e-10, No Iterations 4
Time = 1.48

nonePBiCG:  Solving for r, Initial residual = 0.00152407, Final residual = 9.23474e-10, No Iterations 4
Time = 1.49

nonePBiCG:  Solving for r, Initial residual = 0.0015244, Final residual = 9.08855e-10, No Iterations 4
Time = 1.5

nonePBiCG:  Solving for r, Initial residual = 0.00152476, Final residual = 8.93115e-10, No Iterations 4
Time = 1.51

nonePBiCG:  Solving for r, Initial residual = 0.00152508, Final residual = 8.76459e-10, No Iterations 4
Time = 1.52

nonePBiCG:  Solving for r, Initial residual = 0.00152539, Final residual = 8.60488e-10, No Iterations 4
Time = 1.53

nonePBiCG:  Solving for r, Initial residual = 0.00152572, Final residual = 8.48845e-10, No Iterations 4
Time = 1.54

nonePBiCG:  Solving for r, Initial residual = 0.00152603, Final residual = 8.36016e-10, No Iterations 4
Time = 1.55

nonePBiCG:  Solving for r, Initial residual = 0.00152634, Final residual = 8.22121e-10, No Iterations 4
Time = 1.56

nonePBiCG:  Solving for r, Initial residual = 0.00152663, Final residual = 8.07262e-10, No Iterations 4
Time = 1.57

nonePBiCG:  Solving for r, Initial residual = 0.0015269, Final residual = 7.92745e-10, No Iterations 4
Time = 1.58

nonePBiCG:  Solving for r, Initial residual = 0.00152722, Final residual = 7.81493e-10, No Iterations 4
Time = 1.59

nonePBiCG:  Solving for r, Initial residual = 0.00152758, Final residual = 7.70086e-10, No Iterations 4
Time = 1.6

nonePBiCG:  Solving for r, Initial residual = 0.00152795, Final residual = 7.57885e-10, No Iterations 4
Time = 1.61

nonePBiCG:  Solving for r, Initial residual = 0.00152823, Final residual = 7.4475e-10, No Iterations 4
Time = 1.62

nonePBiCG:  Solving for r, Initial residual = 0.00152847, Final residual = 7.32792e-10, No Iterations 4
Time = 1.63

nonePBiCG:  Solving for r, Initial residual = 0.00152874, Final residual = 7.21633e-10, No Iterations 4
Time = 1.64

nonePBiCG:  Solving for r, Initial residual = 0.00152906, Final residual = 7.10874e-10, No Iterations 4
Time = 1.65

nonePBiCG:  Solving for r, Initial residual = 0.00152941, Final residual = 6.99828e-10, No Iterations 4
Time = 1.66

nonePBiCG:  Solving for r, Initial residual = 0.00152974, Final residual = 6.87949e-10, No Iterations 4
Time = 1.67

nonePBiCG:  Solving for r, Initial residual = 0.00153003, Final residual = 6.78142e-10, No Iterations 4
Time = 1.68

nonePBiCG:  Solving for r, Initial residual = 0.00153031, Final residual = 6.67697e-10, No Iterations 4
Time = 1.69

nonePBiCG:  Solving for r, Initial residual = 0.00153058, Final residual = 6.57814e-10, No Iterations 4
Time = 1.7

nonePBiCG:  Solving for r, Initial residual = 0.0015309, Final residual = 6.47307e-10, No Iterations 4
Time = 1.71

nonePBiCG:  Solving for r, Initial residual = 0.0015312, Final residual = 6.37374e-10, No Iterations 4
Time = 1.72

nonePBiCG:  Solving for r, Initial residual = 0.00153146, Final residual = 6.28584e-10, No Iterations 4
Time = 1.73

nonePBiCG:  Solving for r, Initial residual = 0.00153176, Final residual = 6.19014e-10, No Iterations 4
Time = 1.74

nonePBiCG:  Solving for r, Initial residual = 0.0015321, Final residual = 6.09496e-10, No Iterations 4
Time = 1.75

nonePBiCG:  Solving for r, Initial residual = 0.00153243, Final residual = 6.00091e-10, No Iterations 4
Time = 1.76

nonePBiCG:  Solving for r, Initial residual = 0.0015327, Final residual = 5.9133e-10, No Iterations 4
Time = 1.77

nonePBiCG:  Solving for r, Initial residual = 0.00153294, Final residual = 5.83301e-10, No Iterations 4
Time = 1.78

nonePBiCG:  Solving for r, Initial residual = 0.0015332, Final residual = 5.74728e-10, No Iterations 4
Time = 1.79

nonePBiCG:  Solving for r, Initial residual = 0.00153349, Final residual = 5.65701e-10, No Iterations 4
Time = 1.8

nonePBiCG:  Solving for r, Initial residual = 0.00153383, Final residual = 5.57055e-10, No Iterations 4
Time = 1.81

nonePBiCG:  Solving for r, Initial residual = 0.00153416, Final residual = 5.49618e-10, No Iterations 4
Time = 1.82

nonePBiCG:  Solving for r, Initial residual = 0.00153444, Final residual = 5.41946e-10, No Iterations 4
Time = 1.83

nonePBiCG:  Solving for r, Initial residual = 0.00153467, Final residual = 5.34004e-10, No Iterations 4
Time = 1.84

nonePBiCG:  Solving for r, Initial residual = 0.00153493, Final residual = 5.25703e-10, No Iterations 4
Time = 1.85

nonePBiCG:  Solving for r, Initial residual = 0.00153523, Final residual = 5.18122e-10, No Iterations 4
Time = 1.86

nonePBiCG:  Solving for r, Initial residual = 0.00153554, Final residual = 5.11671e-10, No Iterations 4
Time = 1.87

nonePBiCG:  Solving for r, Initial residual = 0.00153582, Final residual = 5.04552e-10, No Iterations 4
Time = 1.88

nonePBiCG:  Solving for r, Initial residual = 0.0015361, Final residual = 4.96821e-10, No Iterations 4
Time = 1.89

nonePBiCG:  Solving for r, Initial residual = 0.00153639, Final residual = 4.89023e-10, No Iterations 4
Time = 1.9

nonePBiCG:  Solving for r, Initial residual = 0.00153666, Final residual = 4.82458e-10, No Iterations 4
Time = 1.91

nonePBiCG:  Solving for r, Initial residual = 0.00153695, Final residual = 4.76656e-10, No Iterations 4
Time = 1.92

nonePBiCG:  Solving for r, Initial residual = 0.0015372, Final residual = 4.70231e-10, No Iterations 4
Time = 1.93

nonePBiCG:  Solving for r, Initial residual = 0.00153744, Final residual = 4.63231e-10, No Iterations 4
Time = 1.94

nonePBiCG:  Solving for r, Initial residual = 0.00153772, Final residual = 4.55715e-10, No Iterations 4
Time = 1.95

nonePBiCG:  Solving for r, Initial residual = 0.00153804, Final residual = 4.49539e-10, No Iterations 4
Time = 1.96

nonePBiCG:  Solving for r, Initial residual = 0.00153837, Final residual = 4.443e-10, No Iterations 4
Time = 1.97

nonePBiCG:  Solving for r, Initial residual = 0.00153863, Final residual = 4.38512e-10, No Iterations 4
Time = 1.98

nonePBiCG:  Solving for r, Initial residual = 0.00153883, Final residual = 4.32175e-10, No Iterations 4
Time = 1.99

nonePBiCG:  Solving for r, Initial residual = 0.00153907, Final residual = 4.25597e-10, No Iterations 4
Time = 2

nonePBiCG:  Solving for r, Initial residual = 0.00153935, Final residual = 4.19795e-10, No Iterations 4
Time = 2.01

nonePBiCG:  Solving for r, Initial residual = 0.00153966, Final residual = 4.14562e-10, No Iterations 4
Time = 2.02

nonePBiCG:  Solving for r, Initial residual = 0.00153997, Final residual = 4.09151e-10, No Iterations 4
Time = 2.03

nonePBiCG:  Solving for r, Initial residual = 0.00154023, Final residual = 4.0343e-10, No Iterations 4
Time = 2.04

nonePBiCG:  Solving for r, Initial residual = 0.00154046, Final residual = 3.97933e-10, No Iterations 4
Time = 2.05

nonePBiCG:  Solving for r, Initial residual = 0.00154069, Final residual = 3.92649e-10, No Iterations 4
Time = 2.06

nonePBiCG:  Solving for r, Initial residual = 0.00154097, Final residual = 3.87457e-10, No Iterations 4
Time = 2.07

nonePBiCG:  Solving for r, Initial residual = 0.00154124, Final residual = 3.823e-10, No Iterations 4
Time = 2.08

nonePBiCG:  Solving for r, Initial residual = 0.0015415, Final residual = 3.76932e-10, No Iterations 4
Time = 2.09

nonePBiCG:  Solving for r, Initial residual = 0.00154177, Final residual = 3.72243e-10, No Iterations 4
Time = 2.1

nonePBiCG:  Solving for r, Initial residual = 0.00154205, Final residual = 3.67456e-10, No Iterations 4
Time = 2.11

nonePBiCG:  Solving for r, Initial residual = 0.00154231, Final residual = 3.62569e-10, No Iterations 4
Time = 2.12

nonePBiCG:  Solving for r, Initial residual = 0.00154256, Final residual = 3.57642e-10, No Iterations 4
Time = 2.13

nonePBiCG:  Solving for r, Initial residual = 0.00154279, Final residual = 3.52782e-10, No Iterations 4
Time = 2.14

nonePBiCG:  Solving for r, Initial residual = 0.00154302, Final residual = 3.48661e-10, No Iterations 4
Time = 2.15

nonePBiCG:  Solving for r, Initial residual = 0.00154328, Final residual = 3.4411e-10, No Iterations 4
Time = 2.16

nonePBiCG:  Solving for r, Initial residual = 0.00154358, Final residual = 3.39464e-10, No Iterations 4
Time = 2.17

nonePBiCG:  Solving for r, Initial residual = 0.00154389, Final residual = 3.35006e-10, No Iterations 4
Time = 2.18

nonePBiCG:  Solving for r, Initial residual = 0.00154412, Final residual = 3.3071e-10, No Iterations 4
Time = 2.19

nonePBiCG:  Solving for r, Initial residual = 0.0015443, Final residual = 3.26831e-10, No Iterations 4
Time = 2.2

nonePBiCG:  Solving for r, Initial residual = 0.00154453, Final residual = 3.22673e-10, No Iterations 4
Time = 2.21

nonePBiCG:  Solving for r, Initial residual = 0.00154479, Final residual = 3.18189e-10, No Iterations 4
Time = 2.22

nonePBiCG:  Solving for r, Initial residual = 0.00154509, Final residual = 3.13981e-10, No Iterations 4
Time = 2.23

nonePBiCG:  Solving for r, Initial residual = 0.00154536, Final residual = 3.10431e-10, No Iterations 4
Time = 2.24

nonePBiCG:  Solving for r, Initial residual = 0.0015456, Final residual = 3.0663e-10, No Iterations 4
Time = 2.25

nonePBiCG:  Solving for r, Initial residual = 0.00154581, Final residual = 3.02791e-10, No Iterations 4
Time = 2.26

nonePBiCG:  Solving for r, Initial residual = 0.00154603, Final residual = 2.98643e-10, No Iterations 4
Time = 2.27

nonePBiCG:  Solving for r, Initial residual = 0.00154629, Final residual = 2.94926e-10, No Iterations 4
Time = 2.28

nonePBiCG:  Solving for r, Initial residual = 0.00154655, Final residual = 2.91634e-10, No Iterations 4
Time = 2.29

nonePBiCG:  Solving for r, Initial residual = 0.00154678, Final residual = 2.88087e-10, No Iterations 4
Time = 2.3

nonePBiCG:  Solving for r, Initial residual = 0.00154702, Final residual = 2.84362e-10, No Iterations 4
Time = 2.31

nonePBiCG:  Solving for r, Initial residual = 0.00154727, Final residual = 2.80551e-10, No Iterations 4
Time = 2.32

nonePBiCG:  Solving for r, Initial residual = 0.00154752, Final residual = 2.77344e-10, No Iterations 4
Time = 2.33

nonePBiCG:  Solving for r, Initial residual = 0.00154776, Final residual = 2.7435e-10, No Iterations 4
Time = 2.34

nonePBiCG:  Solving for r, Initial residual = 0.00154797, Final residual = 2.71009e-10, No Iterations 4
Time = 2.35

nonePBiCG:  Solving for r, Initial residual = 0.00154818, Final residual = 2.67389e-10, No Iterations 4
Time = 2.36

nonePBiCG:  Solving for r, Initial residual = 0.00154842, Final residual = 2.63761e-10, No Iterations 4
Time = 2.37

nonePBiCG:  Solving for r, Initial residual = 0.00154868, Final residual = 2.6102e-10, No Iterations 4
Time = 2.38

nonePBiCG:  Solving for r, Initial residual = 0.00154896, Final residual = 2.58261e-10, No Iterations 4
Time = 2.39

nonePBiCG:  Solving for r, Initial residual = 0.00154918, Final residual = 2.55226e-10, No Iterations 4
Time = 2.4

nonePBiCG:  Solving for r, Initial residual = 0.00154936, Final residual = 2.51881e-10, No Iterations 4
Time = 2.41

nonePBiCG:  Solving for r, Initial residual = 0.00154957, Final residual = 2.48484e-10, No Iterations 4
Time = 2.42

nonePBiCG:  Solving for r, Initial residual = 0.0015498, Final residual = 2.45844e-10, No Iterations 4
Time = 2.43

nonePBiCG:  Solving for r, Initial residual = 0.00155007, Final residual = 2.43328e-10, No Iterations 4
Time = 2.44

nonePBiCG:  Solving for r, Initial residual = 0.00155032, Final residual = 2.40514e-10, No Iterations 4
Time = 2.45

nonePBiCG:  Solving for r, Initial residual = 0.00155053, Final residual = 2.37481e-10, No Iterations 4
Time = 2.46

nonePBiCG:  Solving for r, Initial residual = 0.00155074, Final residual = 2.34613e-10, No Iterations 4
Time = 2.47

nonePBiCG:  Solving for r, Initial residual = 0.00155094, Final residual = 2.31817e-10, No Iterations 4
Time = 2.48

nonePBiCG:  Solving for r, Initial residual = 0.00155118, Final residual = 2.29445e-10, No Iterations 4
Time = 2.49

nonePBiCG:  Solving for r, Initial residual = 0.00155141, Final residual = 2.26879e-10, No Iterations 4
Time = 2.5

nonePBiCG:  Solving for r, Initial residual = 0.00155161, Final residual = 2.24053e-10, No Iterations 4
Time = 2.51

nonePBiCG:  Solving for r, Initial residual = 0.00155183, Final residual = 2.21663e-10, No Iterations 4
Time = 2.52

nonePBiCG:  Solving for r, Initial residual = 0.00155207, Final residual = 2.19042e-10, No Iterations 4
Time = 2.53

nonePBiCG:  Solving for r, Initial residual = 0.0015523, Final residual = 2.16652e-10, No Iterations 4
Time = 2.54

nonePBiCG:  Solving for r, Initial residual = 0.00155252, Final residual = 2.14223e-10, No Iterations 4
Time = 2.55

nonePBiCG:  Solving for r, Initial residual = 0.00155271, Final residual = 2.11795e-10, No Iterations 4
Time = 2.56

nonePBiCG:  Solving for r, Initial residual = 0.00155289, Final residual = 2.09576e-10, No Iterations 4
Time = 2.57

nonePBiCG:  Solving for r, Initial residual = 0.0015531, Final residual = 2.0717e-10, No Iterations 4
Time = 2.58

nonePBiCG:  Solving for r, Initial residual = 0.00155336, Final residual = 2.04875e-10, No Iterations 4
Time = 2.59

nonePBiCG:  Solving for r, Initial residual = 0.00155363, Final residual = 2.02543e-10, No Iterations 4
Time = 2.6

nonePBiCG:  Solving for r, Initial residual = 0.00155383, Final residual = 2.00436e-10, No Iterations 4
Time = 2.61

nonePBiCG:  Solving for r, Initial residual = 0.00155397, Final residual = 1.98357e-10, No Iterations 4
Time = 2.62

nonePBiCG:  Solving for r, Initial residual = 0.00155415, Final residual = 1.96108e-10, No Iterations 4
Time = 2.63

nonePBiCG:  Solving for r, Initial residual = 0.00155435, Final residual = 1.93935e-10, No Iterations 4
Time = 2.64

nonePBiCG:  Solving for r, Initial residual = 0.00155461, Final residual = 1.91696e-10, No Iterations 4
Time = 2.65

nonePBiCG:  Solving for r, Initial residual = 0.00155486, Final residual = 1.89907e-10, No Iterations 4
Time = 2.66

nonePBiCG:  Solving for r, Initial residual = 0.00155506, Final residual = 1.87963e-10, No Iterations 4
Time = 2.67

nonePBiCG:  Solving for r, Initial residual = 0.00155522, Final residual = 1.85861e-10, No Iterations 4
Time = 2.68

nonePBiCG:  Solving for r, Initial residual = 0.0015554, Final residual = 1.83737e-10, No Iterations 4
Time = 2.69

nonePBiCG:  Solving for r, Initial residual = 0.0015556, Final residual = 1.81785e-10, No Iterations 4
Time = 2.7

nonePBiCG:  Solving for r, Initial residual = 0.00155582, Final residual = 1.80044e-10, No Iterations 4
Time = 2.71

nonePBiCG:  Solving for r, Initial residual = 0.00155603, Final residual = 1.78298e-10, No Iterations 4
Time = 2.72

nonePBiCG:  Solving for r, Initial residual = 0.00155624, Final residual = 1.76343e-10, No Iterations 4
Time = 2.73

nonePBiCG:  Solving for r, Initial residual = 0.00155644, Final residual = 1.74308e-10, No Iterations 4
Time = 2.74

nonePBiCG:  Solving for r, Initial residual = 0.00155662, Final residual = 1.72577e-10, No Iterations 4
Time = 2.75

nonePBiCG:  Solving for r, Initial residual = 0.00155682, Final residual = 1.70948e-10, No Iterations 4
Time = 2.76

nonePBiCG:  Solving for r, Initial residual = 0.00155699, Final residual = 1.6923e-10, No Iterations 4
Time = 2.77

nonePBiCG:  Solving for r, Initial residual = 0.00155717, Final residual = 1.67469e-10, No Iterations 4
Time = 2.78

nonePBiCG:  Solving for r, Initial residual = 0.00155737, Final residual = 1.65524e-10, No Iterations 4
Time = 2.79

nonePBiCG:  Solving for r, Initial residual = 0.0015576, Final residual = 1.64035e-10, No Iterations 4
Time = 2.8

nonePBiCG:  Solving for r, Initial residual = 0.00155783, Final residual = 1.62508e-10, No Iterations 4
Time = 2.81

nonePBiCG:  Solving for r, Initial residual = 0.00155799, Final residual = 1.60819e-10, No Iterations 4
Time = 2.82

nonePBiCG:  Solving for r, Initial residual = 0.00155811, Final residual = 1.59135e-10, No Iterations 4
Time = 2.83

nonePBiCG:  Solving for r, Initial residual = 0.00155829, Final residual = 1.57382e-10, No Iterations 4
Time = 2.84

nonePBiCG:  Solving for r, Initial residual = 0.00155849, Final residual = 1.56056e-10, No Iterations 4
Time = 2.85

nonePBiCG:  Solving for r, Initial residual = 0.00155872, Final residual = 1.54626e-10, No Iterations 4
Time = 2.86

nonePBiCG:  Solving for r, Initial residual = 0.00155895, Final residual = 1.53087e-10, No Iterations 4
Time = 2.87

nonePBiCG:  Solving for r, Initial residual = 0.00155911, Final residual = 1.51391e-10, No Iterations 4
Time = 2.88

nonePBiCG:  Solving for r, Initial residual = 0.00155922, Final residual = 1.49802e-10, No Iterations 4
Time = 2.89

nonePBiCG:  Solving for r, Initial residual = 0.00155939, Final residual = 1.48554e-10, No Iterations 4
Time = 2.9

nonePBiCG:  Solving for r, Initial residual = 0.0015596, Final residual = 1.4728e-10, No Iterations 4
Time = 2.91

nonePBiCG:  Solving for r, Initial residual = 0.00155981, Final residual = 1.4584e-10, No Iterations 4
Time = 2.92

nonePBiCG:  Solving for r, Initial residual = 0.00156, Final residual = 1.44285e-10, No Iterations 4
Time = 2.93

nonePBiCG:  Solving for r, Initial residual = 0.00156017, Final residual = 1.42746e-10, No Iterations 4
Time = 2.94

nonePBiCG:  Solving for r, Initial residual = 0.00156032, Final residual = 1.41483e-10, No Iterations 4
Time = 2.95

nonePBiCG:  Solving for r, Initial residual = 0.00156048, Final residual = 1.40347e-10, No Iterations 4
Time = 2.96

nonePBiCG:  Solving for r, Initial residual = 0.00156068, Final residual = 1.39064e-10, No Iterations 4
Time = 2.97

nonePBiCG:  Solving for r, Initial residual = 0.00156086, Final residual = 1.37628e-10, No Iterations 4
Time = 2.98

nonePBiCG:  Solving for r, Initial residual = 0.00156101, Final residual = 1.36253e-10, No Iterations 4
Time = 2.99

nonePBiCG:  Solving for r, Initial residual = 0.00156118, Final residual = 1.34923e-10, No Iterations 4
Time = 3

nonePBiCG:  Solving for r, Initial residual = 0.00156135, Final residual = 1.33836e-10, No Iterations 4
Time = 3.01

nonePBiCG:  Solving for r, Initial residual = 0.00156154, Final residual = 1.32659e-10, No Iterations 4
Time = 3.02

nonePBiCG:  Solving for r, Initial residual = 0.00156171, Final residual = 1.31378e-10, No Iterations 4
Time = 3.03

nonePBiCG:  Solving for r, Initial residual = 0.00156186, Final residual = 1.30169e-10, No Iterations 4
Time = 3.04

nonePBiCG:  Solving for r, Initial residual = 0.001562, Final residual = 1.28919e-10, No Iterations 4
Time = 3.05

nonePBiCG:  Solving for r, Initial residual = 0.00156216, Final residual = 1.27709e-10, No Iterations 4
Time = 3.06

nonePBiCG:  Solving for r, Initial residual = 0.00156234, Final residual = 1.26666e-10, No Iterations 4
Time = 3.07

nonePBiCG:  Solving for r, Initial residual = 0.00156255, Final residual = 1.2549e-10, No Iterations 4
Time = 3.08

nonePBiCG:  Solving for r, Initial residual = 0.00156272, Final residual = 1.24425e-10, No Iterations 4
Time = 3.09

nonePBiCG:  Solving for r, Initial residual = 0.00156283, Final residual = 1.23304e-10, No Iterations 4
Time = 3.1

nonePBiCG:  Solving for r, Initial residual = 0.00156297, Final residual = 1.22073e-10, No Iterations 4
Time = 3.11

nonePBiCG:  Solving for r, Initial residual = 0.00156313, Final residual = 1.20988e-10, No Iterations 4
Time = 3.12

nonePBiCG:  Solving for r, Initial residual = 0.0015633, Final residual = 1.1995e-10, No Iterations 4
Time = 3.13

nonePBiCG:  Solving for r, Initial residual = 0.00156348, Final residual = 1.19026e-10, No Iterations 4
Time = 3.14

nonePBiCG:  Solving for r, Initial residual = 0.00156364, Final residual = 1.17999e-10, No Iterations 4
Time = 3.15

nonePBiCG:  Solving for r, Initial residual = 0.00156378, Final residual = 1.16867e-10, No Iterations 4
Time = 3.16

nonePBiCG:  Solving for r, Initial residual = 0.00156392, Final residual = 1.15765e-10, No Iterations 4
Time = 3.17

nonePBiCG:  Solving for r, Initial residual = 0.00156407, Final residual = 1.1469e-10, No Iterations 4
Time = 3.18

nonePBiCG:  Solving for r, Initial residual = 0.00156422, Final residual = 1.13901e-10, No Iterations 4
Time = 3.19

nonePBiCG:  Solving for r, Initial residual = 0.00156435, Final residual = 1.13e-10, No Iterations 4
Time = 3.2

nonePBiCG:  Solving for r, Initial residual = 0.00156453, Final residual = 1.11982e-10, No Iterations 4
Time = 3.21

nonePBiCG:  Solving for r, Initial residual = 0.0015647, Final residual = 1.10892e-10, No Iterations 4
Time = 3.22

nonePBiCG:  Solving for r, Initial residual = 0.00156484, Final residual = 1.09853e-10, No Iterations 4
Time = 3.23

nonePBiCG:  Solving for r, Initial residual = 0.00156499, Final residual = 1.09021e-10, No Iterations 4
Time = 3.24

nonePBiCG:  Solving for r, Initial residual = 0.00156511, Final residual = 1.08237e-10, No Iterations 4
Time = 3.25

nonePBiCG:  Solving for r, Initial residual = 0.0015652, Final residual = 1.07341e-10, No Iterations 4
Time = 3.26

nonePBiCG:  Solving for r, Initial residual = 0.00156537, Final residual = 1.0634e-10, No Iterations 4
Time = 3.27

nonePBiCG:  Solving for r, Initial residual = 0.00156556, Final residual = 1.05365e-10, No Iterations 4
Time = 3.28

nonePBiCG:  Solving for r, Initial residual = 0.00156574, Final residual = 1.0454e-10, No Iterations 4
Time = 3.29

nonePBiCG:  Solving for r, Initial residual = 0.00156586, Final residual = 1.03696e-10, No Iterations 4
Time = 3.3

nonePBiCG:  Solving for r, Initial residual = 0.00156594, Final residual = 1.02914e-10, No Iterations 4
Time = 3.31

nonePBiCG:  Solving for r, Initial residual = 0.00156603, Final residual = 1.02031e-10, No Iterations 4
Time = 3.32

nonePBiCG:  Solving for r, Initial residual = 0.00156619, Final residual = 1.0109e-10, No Iterations 4
Time = 3.33

nonePBiCG:  Solving for r, Initial residual = 0.00156638, Final residual = 1.00369e-10, No Iterations 4
Time = 3.34

nonePBiCG:  Solving for r, Initial residual = 0.00156657, Final residual = 9.95669e-11, No Iterations 4
Time = 3.35

nonePBiCG:  Solving for r, Initial residual = 0.00156669, Final residual = 9.87171e-11, No Iterations 4
Time = 3.36

nonePBiCG:  Solving for r, Initial residual = 0.00156676, Final residual = 9.79157e-11, No Iterations 4
Time = 3.37

nonePBiCG:  Solving for r, Initial residual = 0.00156684, Final residual = 9.7052e-11, No Iterations 4
Time = 3.38

nonePBiCG:  Solving for r, Initial residual = 0.00156699, Final residual = 9.63749e-11, No Iterations 4
Time = 3.39

nonePBiCG:  Solving for r, Initial residual = 0.00156718, Final residual = 9.56707e-11, No Iterations 4
Time = 3.4

nonePBiCG:  Solving for r, Initial residual = 0.00156734, Final residual = 9.4894e-11, No Iterations 4
Time = 3.41

nonePBiCG:  Solving for r, Initial residual = 0.00156746, Final residual = 9.40593e-11, No Iterations 4
Time = 3.42

nonePBiCG:  Solving for r, Initial residual = 0.00156755, Final residual = 9.32505e-11, No Iterations 4
Time = 3.43

nonePBiCG:  Solving for r, Initial residual = 0.00156763, Final residual = 9.25476e-11, No Iterations 4
Time = 3.44

nonePBiCG:  Solving for r, Initial residual = 0.00156776, Final residual = 9.19412e-11, No Iterations 4
Time = 3.45

nonePBiCG:  Solving for r, Initial residual = 0.00156792, Final residual = 9.12455e-11, No Iterations 4
Time = 3.46

nonePBiCG:  Solving for r, Initial residual = 0.00156805, Final residual = 9.05003e-11, No Iterations 4
Time = 3.47

nonePBiCG:  Solving for r, Initial residual = 0.00156818, Final residual = 8.96841e-11, No Iterations 4
Time = 3.48

nonePBiCG:  Solving for r, Initial residual = 0.0015683, Final residual = 8.89983e-11, No Iterations 4
Time = 3.49

nonePBiCG:  Solving for r, Initial residual = 0.0015684, Final residual = 8.83973e-11, No Iterations 4
Time = 3.5

nonePBiCG:  Solving for r, Initial residual = 0.0015685, Final residual = 8.77722e-11, No Iterations 4
Time = 3.51

nonePBiCG:  Solving for r, Initial residual = 0.00156863, Final residual = 8.70959e-11, No Iterations 4
Time = 3.52

nonePBiCG:  Solving for r, Initial residual = 0.00156874, Final residual = 8.63723e-11, No Iterations 4
Time = 3.53

nonePBiCG:  Solving for r, Initial residual = 0.00156886, Final residual = 8.56602e-11, No Iterations 4
Time = 3.54

nonePBiCG:  Solving for r, Initial residual = 0.001569, Final residual = 8.50299e-11, No Iterations 4
Time = 3.55

nonePBiCG:  Solving for r, Initial residual = 0.00156913, Final residual = 8.44869e-11, No Iterations 4
Time = 3.56

nonePBiCG:  Solving for r, Initial residual = 0.0015692, Final residual = 8.38738e-11, No Iterations 4
Time = 3.57

nonePBiCG:  Solving for r, Initial residual = 0.0015693, Final residual = 8.32185e-11, No Iterations 4
Time = 3.58

nonePBiCG:  Solving for r, Initial residual = 0.00156941, Final residual = 8.25464e-11, No Iterations 4
Time = 3.59

nonePBiCG:  Solving for r, Initial residual = 0.00156953, Final residual = 8.19286e-11, No Iterations 4
Time = 3.6

nonePBiCG:  Solving for r, Initial residual = 0.00156966, Final residual = 8.13253e-11, No Iterations 4
Time = 3.61

nonePBiCG:  Solving for r, Initial residual = 0.00156979, Final residual = 8.08e-11, No Iterations 4
Time = 3.62

nonePBiCG:  Solving for r, Initial residual = 0.00156986, Final residual = 8.02232e-11, No Iterations 4
Time = 3.63

nonePBiCG:  Solving for r, Initial residual = 0.00156995, Final residual = 7.96138e-11, No Iterations 4
Time = 3.64

nonePBiCG:  Solving for r, Initial residual = 0.00157006, Final residual = 7.9053e-11, No Iterations 4
Time = 3.65

nonePBiCG:  Solving for r, Initial residual = 0.00157017, Final residual = 7.84322e-11, No Iterations 4
Time = 3.66

nonePBiCG:  Solving for r, Initial residual = 0.0015703, Final residual = 7.78465e-11, No Iterations 4
Time = 3.67

nonePBiCG:  Solving for r, Initial residual = 0.0015704, Final residual = 7.73365e-11, No Iterations 4
Time = 3.68

nonePBiCG:  Solving for r, Initial residual = 0.00157046, Final residual = 7.67996e-11, No Iterations 4
Time = 3.69

nonePBiCG:  Solving for r, Initial residual = 0.00157058, Final residual = 7.63004e-11, No Iterations 4
Time = 3.7

nonePBiCG:  Solving for r, Initial residual = 0.00157068, Final residual = 7.57612e-11, No Iterations 4
Time = 3.71

nonePBiCG:  Solving for r, Initial residual = 0.0015708, Final residual = 7.51598e-11, No Iterations 4
Time = 3.72

nonePBiCG:  Solving for r, Initial residual = 0.00157089, Final residual = 7.46114e-11, No Iterations 4
Time = 3.73

nonePBiCG:  Solving for r, Initial residual = 0.00157096, Final residual = 7.41064e-11, No Iterations 4
Time = 3.74

nonePBiCG:  Solving for r, Initial residual = 0.00157102, Final residual = 7.36445e-11, No Iterations 4
Time = 3.75

nonePBiCG:  Solving for r, Initial residual = 0.00157116, Final residual = 7.31809e-11, No Iterations 4
Time = 3.76

nonePBiCG:  Solving for r, Initial residual = 0.00157128, Final residual = 7.26592e-11, No Iterations 4
Time = 3.77

nonePBiCG:  Solving for r, Initial residual = 0.00157138, Final residual = 7.2093e-11, No Iterations 4
Time = 3.78

nonePBiCG:  Solving for r, Initial residual = 0.00157145, Final residual = 7.159e-11, No Iterations 4
Time = 3.79

nonePBiCG:  Solving for r, Initial residual = 0.0015715, Final residual = 7.11287e-11, No Iterations 4
Time = 3.8

nonePBiCG:  Solving for r, Initial residual = 0.00157155, Final residual = 7.07251e-11, No Iterations 4
Time = 3.81

nonePBiCG:  Solving for r, Initial residual = 0.00157169, Final residual = 7.02658e-11, No Iterations 4
Time = 3.82

nonePBiCG:  Solving for r, Initial residual = 0.00157185, Final residual = 6.9759e-11, No Iterations 4
Time = 3.83

nonePBiCG:  Solving for r, Initial residual = 0.00157193, Final residual = 6.92416e-11, No Iterations 4
Time = 3.84

nonePBiCG:  Solving for r, Initial residual = 0.00157197, Final residual = 6.87713e-11, No Iterations 4
Time = 3.85

nonePBiCG:  Solving for r, Initial residual = 0.00157201, Final residual = 6.83616e-11, No Iterations 4
Time = 3.86

nonePBiCG:  Solving for r, Initial residual = 0.00157206, Final residual = 6.79706e-11, No Iterations 4
Time = 3.87

nonePBiCG:  Solving for r, Initial residual = 0.0015722, Final residual = 6.75412e-11, No Iterations 4
Time = 3.88

nonePBiCG:  Solving for r, Initial residual = 0.00157235, Final residual = 6.70682e-11, No Iterations 4
Time = 3.89

nonePBiCG:  Solving for r, Initial residual = 0.00157244, Final residual = 6.65993e-11, No Iterations 4
Time = 3.9

nonePBiCG:  Solving for r, Initial residual = 0.00157247, Final residual = 6.61755e-11, No Iterations 4
Time = 3.91

nonePBiCG:  Solving for r, Initial residual = 0.00157251, Final residual = 6.57825e-11, No Iterations 4
Time = 3.92

nonePBiCG:  Solving for r, Initial residual = 0.00157256, Final residual = 6.54099e-11, No Iterations 4
Time = 3.93

nonePBiCG:  Solving for r, Initial residual = 0.00157267, Final residual = 6.49959e-11, No Iterations 4
Time = 3.94

nonePBiCG:  Solving for r, Initial residual = 0.0015728, Final residual = 6.45338e-11, No Iterations 4
Time = 3.95

nonePBiCG:  Solving for r, Initial residual = 0.00157289, Final residual = 6.41338e-11, No Iterations 4
Time = 3.96

nonePBiCG:  Solving for r, Initial residual = 0.00157295, Final residual = 6.37732e-11, No Iterations 4
Time = 3.97

nonePBiCG:  Solving for r, Initial residual = 0.00157298, Final residual = 6.33979e-11, No Iterations 4
Time = 3.98

nonePBiCG:  Solving for r, Initial residual = 0.00157303, Final residual = 6.30252e-11, No Iterations 4
Time = 3.99

nonePBiCG:  Solving for r, Initial residual = 0.0015731, Final residual = 6.26258e-11, No Iterations 4
Time = 4

nonePBiCG:  Solving for r, Initial residual = 0.0015732, Final residual = 6.22314e-11, No Iterations 4
Time = 4.01

nonePBiCG:  Solving for r, Initial residual = 0.0015733, Final residual = 6.18885e-11, No Iterations 4
Time = 4.02

nonePBiCG:  Solving for r, Initial residual = 0.00157338, Final residual = 6.15503e-11, No Iterations 4
Time = 4.03

nonePBiCG:  Solving for r, Initial residual = 0.00157343, Final residual = 6.11839e-11, No Iterations 4
Time = 4.04

nonePBiCG:  Solving for r, Initial residual = 0.00157347, Final residual = 6.08272e-11, No Iterations 4
Time = 4.05

nonePBiCG:  Solving for r, Initial residual = 0.0015735, Final residual = 6.0469e-11, No Iterations 4
Time = 4.06

nonePBiCG:  Solving for r, Initial residual = 0.00157359, Final residual = 6.01143e-11, No Iterations 4
Time = 4.07

nonePBiCG:  Solving for r, Initial residual = 0.00157368, Final residual = 5.98332e-11, No Iterations 4
Time = 4.08

nonePBiCG:  Solving for r, Initial residual = 0.00157377, Final residual = 5.95263e-11, No Iterations 4
Time = 4.09

nonePBiCG:  Solving for r, Initial residual = 0.00157385, Final residual = 5.91806e-11, No Iterations 4
Time = 4.1

nonePBiCG:  Solving for r, Initial residual = 0.00157387, Final residual = 5.88507e-11, No Iterations 4
Time = 4.11

nonePBiCG:  Solving for r, Initial residual = 0.00157387, Final residual = 5.85313e-11, No Iterations 4
Time = 4.12

nonePBiCG:  Solving for r, Initial residual = 0.00157395, Final residual = 5.82101e-11, No Iterations 4
Time = 4.13

nonePBiCG:  Solving for r, Initial residual = 0.00157404, Final residual = 5.7951e-11, No Iterations 4
Time = 4.14

nonePBiCG:  Solving for r, Initial residual = 0.00157413, Final residual = 5.76551e-11, No Iterations 4
Time = 4.15

nonePBiCG:  Solving for r, Initial residual = 0.00157422, Final residual = 5.73232e-11, No Iterations 4
Time = 4.16

nonePBiCG:  Solving for r, Initial residual = 0.00157423, Final residual = 5.70277e-11, No Iterations 4
Time = 4.17

nonePBiCG:  Solving for r, Initial residual = 0.00157421, Final residual = 5.67154e-11, No Iterations 4
Time = 4.18

nonePBiCG:  Solving for r, Initial residual = 0.00157429, Final residual = 5.64219e-11, No Iterations 4
Time = 4.19

nonePBiCG:  Solving for r, Initial residual = 0.00157438, Final residual = 5.61719e-11, No Iterations 4
Time = 4.2

nonePBiCG:  Solving for r, Initial residual = 0.00157447, Final residual = 5.58873e-11, No Iterations 4
Time = 4.21

nonePBiCG:  Solving for r, Initial residual = 0.00157453, Final residual = 5.55899e-11, No Iterations 4
Time = 4.22

nonePBiCG:  Solving for r, Initial residual = 0.00157454, Final residual = 5.53043e-11, No Iterations 4
Time = 4.23

nonePBiCG:  Solving for r, Initial residual = 0.00157453, Final residual = 5.50152e-11, No Iterations 4
Time = 4.24

nonePBiCG:  Solving for r, Initial residual = 0.00157461, Final residual = 5.47329e-11, No Iterations 4
Time = 4.25

nonePBiCG:  Solving for r, Initial residual = 0.00157469, Final residual = 5.44894e-11, No Iterations 4
Time = 4.26

nonePBiCG:  Solving for r, Initial residual = 0.00157476, Final residual = 5.42247e-11, No Iterations 4
Time = 4.27

nonePBiCG:  Solving for r, Initial residual = 0.0015748, Final residual = 5.39572e-11, No Iterations 4
Time = 4.28

nonePBiCG:  Solving for r, Initial residual = 0.00157481, Final residual = 5.36783e-11, No Iterations 4
Time = 4.29

nonePBiCG:  Solving for r, Initial residual = 0.00157482, Final residual = 5.34156e-11, No Iterations 4
Time = 4.3

nonePBiCG:  Solving for r, Initial residual = 0.00157491, Final residual = 5.3146e-11, No Iterations 4
Time = 4.31

nonePBiCG:  Solving for r, Initial residual = 0.00157499, Final residual = 5.28975e-11, No Iterations 4
Time = 4.32

nonePBiCG:  Solving for r, Initial residual = 0.00157503, Final residual = 5.26696e-11, No Iterations 4
Time = 4.33

nonePBiCG:  Solving for r, Initial residual = 0.00157504, Final residual = 5.24121e-11, No Iterations 4
Time = 4.34

nonePBiCG:  Solving for r, Initial residual = 0.00157505, Final residual = 5.21478e-11, No Iterations 4
Time = 4.35

nonePBiCG:  Solving for r, Initial residual = 0.00157507, Final residual = 5.19013e-11, No Iterations 4
Time = 4.36

nonePBiCG:  Solving for r, Initial residual = 0.00157518, Final residual = 5.16434e-11, No Iterations 4
Time = 4.37

nonePBiCG:  Solving for r, Initial residual = 0.00157524, Final residual = 5.14266e-11, No Iterations 4
Time = 4.38

nonePBiCG:  Solving for r, Initial residual = 0.00157526, Final residual = 5.11959e-11, No Iterations 4
Time = 4.39

nonePBiCG:  Solving for r, Initial residual = 0.00157527, Final residual = 5.09501e-11, No Iterations 4
Time = 4.4

nonePBiCG:  Solving for r, Initial residual = 0.00157528, Final residual = 5.07117e-11, No Iterations 4
Time = 4.41

nonePBiCG:  Solving for r, Initial residual = 0.00157529, Final residual = 5.04667e-11, No Iterations 4
Time = 4.42

nonePBiCG:  Solving for r, Initial residual = 0.00157541, Final residual = 5.02316e-11, No Iterations 4
Time = 4.43

nonePBiCG:  Solving for r, Initial residual = 0.00157547, Final residual = 5.00359e-11, No Iterations 4
Time = 4.44

nonePBiCG:  Solving for r, Initial residual = 0.00157547, Final residual = 4.98105e-11, No Iterations 4
Time = 4.45

nonePBiCG:  Solving for r, Initial residual = 0.00157547, Final residual = 4.9566e-11, No Iterations 4
Time = 4.46

nonePBiCG:  Solving for r, Initial residual = 0.00157548, Final residual = 4.93506e-11, No Iterations 4
Time = 4.47

nonePBiCG:  Solving for r, Initial residual = 0.00157549, Final residual = 4.91189e-11, No Iterations 4
Time = 4.48

nonePBiCG:  Solving for r, Initial residual = 0.00157558, Final residual = 4.89034e-11, No Iterations 4
Time = 4.49

nonePBiCG:  Solving for r, Initial residual = 0.00157564, Final residual = 4.87158e-11, No Iterations 4
Time = 4.5

nonePBiCG:  Solving for r, Initial residual = 0.00157566, Final residual = 4.85005e-11, No Iterations 4
Time = 4.51

nonePBiCG:  Solving for r, Initial residual = 0.00157566, Final residual = 4.82702e-11, No Iterations 4
Time = 4.52

nonePBiCG:  Solving for r, Initial residual = 0.00157566, Final residual = 4.80598e-11, No Iterations 4
Time = 4.53

nonePBiCG:  Solving for r, Initial residual = 0.00157566, Final residual = 4.78608e-11, No Iterations 4
Time = 4.54

nonePBiCG:  Solving for r, Initial residual = 0.00157572, Final residual = 4.76432e-11, No Iterations 4
Time = 4.55

nonePBiCG:  Solving for r, Initial residual = 0.00157578, Final residual = 4.74624e-11, No Iterations 4
Time = 4.56

nonePBiCG:  Solving for r, Initial residual = 0.00157582, Final residual = 4.72572e-11, No Iterations 4
Time = 4.57

nonePBiCG:  Solving for r, Initial residual = 0.00157583, Final residual = 4.70512e-11, No Iterations 4
Time = 4.58

nonePBiCG:  Solving for r, Initial residual = 0.00157583, Final residual = 4.68635e-11, No Iterations 4
Time = 4.59

nonePBiCG:  Solving for r, Initial residual = 0.0015758, Final residual = 4.66659e-11, No Iterations 4
Time = 4.6

nonePBiCG:  Solving for r, Initial residual = 0.00157582, Final residual = 4.64555e-11, No Iterations 4
Time = 4.61

nonePBiCG:  Solving for r, Initial residual = 0.00157589, Final residual = 4.62715e-11, No Iterations 4
Time = 4.62

nonePBiCG:  Solving for r, Initial residual = 0.00157595, Final residual = 4.60759e-11, No Iterations 4
Time = 4.63

nonePBiCG:  Solving for r, Initial residual = 0.00157597, Final residual = 4.59018e-11, No Iterations 4
Time = 4.64

nonePBiCG:  Solving for r, Initial residual = 0.00157596, Final residual = 4.57351e-11, No Iterations 4
Time = 4.65

nonePBiCG:  Solving for r, Initial residual = 0.0015759, Final residual = 4.55444e-11, No Iterations 4
Time = 4.66

nonePBiCG:  Solving for r, Initial residual = 0.00157591, Final residual = 4.5331e-11, No Iterations 4
Time = 4.67

nonePBiCG:  Solving for r, Initial residual = 0.00157597, Final residual = 4.51395e-11, No Iterations 4
Time = 4.68

nonePBiCG:  Solving for r, Initial residual = 0.00157604, Final residual = 4.4957e-11, No Iterations 4
Time = 4.69

nonePBiCG:  Solving for r, Initial residual = 0.00157609, Final residual = 4.48214e-11, No Iterations 4
Time = 4.7

nonePBiCG:  Solving for r, Initial residual = 0.00157606, Final residual = 4.46616e-11, No Iterations 4
Time = 4.71

nonePBiCG:  Solving for r, Initial residual = 0.00157598, Final residual = 4.44784e-11, No Iterations 4
Time = 4.72

nonePBiCG:  Solving for r, Initial residual = 0.00157597, Final residual = 4.42742e-11, No Iterations 4
Time = 4.73

nonePBiCG:  Solving for r, Initial residual = 0.00157604, Final residual = 4.40766e-11, No Iterations 4
Time = 4.74

nonePBiCG:  Solving for r, Initial residual = 0.0015761, Final residual = 4.3922e-11, No Iterations 4
Time = 4.75

nonePBiCG:  Solving for r, Initial residual = 0.00157615, Final residual = 4.37922e-11, No Iterations 4
Time = 4.76

nonePBiCG:  Solving for r, Initial residual = 0.00157613, Final residual = 4.36391e-11, No Iterations 4
Time = 4.77

nonePBiCG:  Solving for r, Initial residual = 0.00157604, Final residual = 4.34638e-11, No Iterations 4
Time = 4.78

nonePBiCG:  Solving for r, Initial residual = 0.00157602, Final residual = 4.32683e-11, No Iterations 4
Time = 4.79

nonePBiCG:  Solving for r, Initial residual = 0.00157609, Final residual = 4.3089e-11, No Iterations 4
Time = 4.8

nonePBiCG:  Solving for r, Initial residual = 0.00157615, Final residual = 4.29485e-11, No Iterations 4
Time = 4.81

nonePBiCG:  Solving for r, Initial residual = 0.00157617, Final residual = 4.2814e-11, No Iterations 4
Time = 4.82

nonePBiCG:  Solving for r, Initial residual = 0.00157615, Final residual = 4.26644e-11, No Iterations 4
Time = 4.83

nonePBiCG:  Solving for r, Initial residual = 0.00157609, Final residual = 4.24971e-11, No Iterations 4
Time = 4.84

nonePBiCG:  Solving for r, Initial residual = 0.00157606, Final residual = 4.23188e-11, No Iterations 4
Time = 4.85

nonePBiCG:  Solving for r, Initial residual = 0.00157612, Final residual = 4.21533e-11, No Iterations 4
Time = 4.86

nonePBiCG:  Solving for r, Initial residual = 0.00157616, Final residual = 4.20295e-11, No Iterations 4
Time = 4.87

nonePBiCG:  Solving for r, Initial residual = 0.00157616, Final residual = 4.18931e-11, No Iterations 4
Time = 4.88

nonePBiCG:  Solving for r, Initial residual = 0.00157614, Final residual = 4.17442e-11, No Iterations 4
Time = 4.89

nonePBiCG:  Solving for r, Initial residual = 0.0015761, Final residual = 4.15799e-11, No Iterations 4
Time = 4.9

nonePBiCG:  Solving for r, Initial residual = 0.00157607, Final residual = 4.14237e-11, No Iterations 4
Time = 4.91

nonePBiCG:  Solving for r, Initial residual = 0.00157613, Final residual = 4.12716e-11, No Iterations 4
Time = 4.92

nonePBiCG:  Solving for r, Initial residual = 0.00157615, Final residual = 4.11529e-11, No Iterations 4
Time = 4.93

nonePBiCG:  Solving for r, Initial residual = 0.00157613, Final residual = 4.10147e-11, No Iterations 4
Time = 4.94

nonePBiCG:  Solving for r, Initial residual = 0.00157611, Final residual = 4.08716e-11, No Iterations 4
Time = 4.95

nonePBiCG:  Solving for r, Initial residual = 0.00157608, Final residual = 4.07334e-11, No Iterations 4
Time = 4.96

nonePBiCG:  Solving for r, Initial residual = 0.00157607, Final residual = 4.05784e-11, No Iterations 4
Time = 4.97

nonePBiCG:  Solving for r, Initial residual = 0.00157611, Final residual = 4.04315e-11, No Iterations 4
Time = 4.98

nonePBiCG:  Solving for r, Initial residual = 0.0015761, Final residual = 4.03148e-11, No Iterations 4
Time = 4.99

nonePBiCG:  Solving for r, Initial residual = 0.00157608, Final residual = 4.01821e-11, No Iterations 4
Time = 5

nonePBiCG:  Solving for r, Initial residual = 0.00157606, Final residual = 4.00551e-11, No Iterations 4
Time = 5.01

nonePBiCG:  Solving for r, Initial residual = 0.00157603, Final residual = 3.99236e-11, No Iterations 4
Time = 5.02

nonePBiCG:  Solving for r, Initial residual = 0.00157602, Final residual = 3.97815e-11, No Iterations 4
Time = 5.03

nonePBiCG:  Solving for r, Initial residual = 0.00157606, Final residual = 3.96445e-11, No Iterations 4
Time = 5.04

nonePBiCG:  Solving for r, Initial residual = 0.00157604, Final residual = 3.95241e-11, No Iterations 4
Time = 5.05

nonePBiCG:  Solving for r, Initial residual = 0.00157602, Final residual = 3.94035e-11, No Iterations 4
Time = 5.06

nonePBiCG:  Solving for r, Initial residual = 0.00157599, Final residual = 3.92764e-11, No Iterations 4
Time = 5.07

nonePBiCG:  Solving for r, Initial residual = 0.00157596, Final residual = 3.91515e-11, No Iterations 4
Time = 5.08

nonePBiCG:  Solving for r, Initial residual = 0.00157593, Final residual = 3.90196e-11, No Iterations 4
Time = 5.09

nonePBiCG:  Solving for r, Initial residual = 0.00157597, Final residual = 3.88927e-11, No Iterations 4
Time = 5.1

nonePBiCG:  Solving for r, Initial residual = 0.00157596, Final residual = 3.87806e-11, No Iterations 4
Time = 5.11

nonePBiCG:  Solving for r, Initial residual = 0.00157594, Final residual = 3.8673e-11, No Iterations 4
Time = 5.12

nonePBiCG:  Solving for r, Initial residual = 0.00157591, Final residual = 3.85501e-11, No Iterations 4
Time = 5.13

nonePBiCG:  Solving for r, Initial residual = 0.00157587, Final residual = 3.84243e-11, No Iterations 4
Time = 5.14

nonePBiCG:  Solving for r, Initial residual = 0.00157581, Final residual = 3.82978e-11, No Iterations 4
Time = 5.15

nonePBiCG:  Solving for r, Initial residual = 0.00157585, Final residual = 3.81776e-11, No Iterations 4
Time = 5.16

nonePBiCG:  Solving for r, Initial residual = 0.00157587, Final residual = 3.8076e-11, No Iterations 4
Time = 5.17

nonePBiCG:  Solving for r, Initial residual = 0.00157584, Final residual = 3.79724e-11, No Iterations 4
Time = 5.18

nonePBiCG:  Solving for r, Initial residual = 0.00157581, Final residual = 3.78612e-11, No Iterations 4
Time = 5.19

nonePBiCG:  Solving for r, Initial residual = 0.00157575, Final residual = 3.77353e-11, No Iterations 4
Time = 5.2

nonePBiCG:  Solving for r, Initial residual = 0.00157565, Final residual = 3.76188e-11, No Iterations 4
Time = 5.21

nonePBiCG:  Solving for r, Initial residual = 0.0015757, Final residual = 3.75163e-11, No Iterations 4
Time = 5.22

nonePBiCG:  Solving for r, Initial residual = 0.00157573, Final residual = 3.74091e-11, No Iterations 4
Time = 5.23

nonePBiCG:  Solving for r, Initial residual = 0.00157573, Final residual = 3.73125e-11, No Iterations 4
Time = 5.24

nonePBiCG:  Solving for r, Initial residual = 0.00157569, Final residual = 3.7202e-11, No Iterations 4
Time = 5.25

nonePBiCG:  Solving for r, Initial residual = 0.00157561, Final residual = 3.70772e-11, No Iterations 4
Time = 5.26

nonePBiCG:  Solving for r, Initial residual = 0.00157549, Final residual = 3.69805e-11, No Iterations 4
Time = 5.27

nonePBiCG:  Solving for r, Initial residual = 0.00157554, Final residual = 3.68814e-11, No Iterations 4
Time = 5.28

nonePBiCG:  Solving for r, Initial residual = 0.00157558, Final residual = 3.67795e-11, No Iterations 4
Time = 5.29

nonePBiCG:  Solving for r, Initial residual = 0.00157559, Final residual = 3.66873e-11, No Iterations 4
Time = 5.3

nonePBiCG:  Solving for r, Initial residual = 0.00157554, Final residual = 3.65798e-11, No Iterations 4
Time = 5.31

nonePBiCG:  Solving for r, Initial residual = 0.00157544, Final residual = 3.64761e-11, No Iterations 4
Time = 5.32

nonePBiCG:  Solving for r, Initial residual = 0.00157532, Final residual = 3.63819e-11, No Iterations 4
Time = 5.33

nonePBiCG:  Solving for r, Initial residual = 0.00157535, Final residual = 3.62865e-11, No Iterations 4
Time = 5.34

nonePBiCG:  Solving for r, Initial residual = 0.0015754, Final residual = 3.61812e-11, No Iterations 4
Time = 5.35

nonePBiCG:  Solving for r, Initial residual = 0.00157542, Final residual = 3.60886e-11, No Iterations 4
Time = 5.36

nonePBiCG:  Solving for r, Initial residual = 0.00157537, Final residual = 3.59959e-11, No Iterations 4
Time = 5.37

nonePBiCG:  Solving for r, Initial residual = 0.00157526, Final residual = 3.5906e-11, No Iterations 4
Time = 5.38

nonePBiCG:  Solving for r, Initial residual = 0.00157514, Final residual = 3.58177e-11, No Iterations 4
Time = 5.39

nonePBiCG:  Solving for r, Initial residual = 0.00157516, Final residual = 3.57192e-11, No Iterations 4
Time = 5.4

nonePBiCG:  Solving for r, Initial residual = 0.0015752, Final residual = 3.56165e-11, No Iterations 4
Time = 5.41

nonePBiCG:  Solving for r, Initial residual = 0.00157521, Final residual = 3.55353e-11, No Iterations 4
Time = 5.42

nonePBiCG:  Solving for r, Initial residual = 0.00157516, Final residual = 3.54543e-11, No Iterations 4
Time = 5.43

nonePBiCG:  Solving for r, Initial residual = 0.00157506, Final residual = 3.53728e-11, No Iterations 4
Time = 5.44

nonePBiCG:  Solving for r, Initial residual = 0.00157494, Final residual = 3.52858e-11, No Iterations 4
Time = 5.45

nonePBiCG:  Solving for r, Initial residual = 0.00157495, Final residual = 3.51904e-11, No Iterations 4
Time = 5.46

nonePBiCG:  Solving for r, Initial residual = 0.00157498, Final residual = 3.50987e-11, No Iterations 4
Time = 5.47

nonePBiCG:  Solving for r, Initial residual = 0.00157497, Final residual = 3.50216e-11, No Iterations 4
Time = 5.48

nonePBiCG:  Solving for r, Initial residual = 0.00157493, Final residual = 3.49464e-11, No Iterations 4
Time = 5.49

nonePBiCG:  Solving for r, Initial residual = 0.00157484, Final residual = 3.48768e-11, No Iterations 4
Time = 5.5

nonePBiCG:  Solving for r, Initial residual = 0.00157472, Final residual = 3.47967e-11, No Iterations 4
Time = 5.51

nonePBiCG:  Solving for r, Initial residual = 0.00157472, Final residual = 3.47118e-11, No Iterations 4
Time = 5.52

nonePBiCG:  Solving for r, Initial residual = 0.00157474, Final residual = 3.46272e-11, No Iterations 4
Time = 5.53

nonePBiCG:  Solving for r, Initial residual = 0.00157471, Final residual = 3.45487e-11, No Iterations 4
Time = 5.54

nonePBiCG:  Solving for r, Initial residual = 0.00157466, Final residual = 3.44778e-11, No Iterations 4
Time = 5.55

nonePBiCG:  Solving for r, Initial residual = 0.0015746, Final residual = 3.44107e-11, No Iterations 4
Time = 5.56

nonePBiCG:  Solving for r, Initial residual = 0.00157449, Final residual = 3.43362e-11, No Iterations 4
Time = 5.57

nonePBiCG:  Solving for r, Initial residual = 0.00157448, Final residual = 3.42616e-11, No Iterations 4
Time = 5.58

nonePBiCG:  Solving for r, Initial residual = 0.00157447, Final residual = 3.41754e-11, No Iterations 4
Time = 5.59

nonePBiCG:  Solving for r, Initial residual = 0.00157443, Final residual = 3.40901e-11, No Iterations 4
Time = 5.6

nonePBiCG:  Solving for r, Initial residual = 0.00157438, Final residual = 3.40249e-11, No Iterations 4
Time = 5.61

nonePBiCG:  Solving for r, Initial residual = 0.00157433, Final residual = 3.39608e-11, No Iterations 4
Time = 5.62

nonePBiCG:  Solving for r, Initial residual = 0.00157425, Final residual = 3.38984e-11, No Iterations 4
Time = 5.63

nonePBiCG:  Solving for r, Initial residual = 0.00157421, Final residual = 3.3824e-11, No Iterations 4
Time = 5.64

nonePBiCG:  Solving for r, Initial residual = 0.00157418, Final residual = 3.3738e-11, No Iterations 4
Time = 5.65

nonePBiCG:  Solving for r, Initial residual = 0.00157414, Final residual = 3.36454e-11, No Iterations 4
Time = 5.66

nonePBiCG:  Solving for r, Initial residual = 0.00157409, Final residual = 3.35856e-11, No Iterations 4
Time = 5.67

nonePBiCG:  Solving for r, Initial residual = 0.00157404, Final residual = 3.35343e-11, No Iterations 4
Time = 5.68

nonePBiCG:  Solving for r, Initial residual = 0.00157396, Final residual = 3.34721e-11, No Iterations 4
Time = 5.69

nonePBiCG:  Solving for r, Initial residual = 0.00157392, Final residual = 3.33979e-11, No Iterations 4
Time = 5.7

nonePBiCG:  Solving for r, Initial residual = 0.00157388, Final residual = 3.33123e-11, No Iterations 4
Time = 5.71

nonePBiCG:  Solving for r, Initial residual = 0.00157384, Final residual = 3.32179e-11, No Iterations 4
Time = 5.72

nonePBiCG:  Solving for r, Initial residual = 0.00157379, Final residual = 3.31705e-11, No Iterations 4
Time = 5.73

nonePBiCG:  Solving for r, Initial residual = 0.00157373, Final residual = 3.31188e-11, No Iterations 4
Time = 5.74

nonePBiCG:  Solving for r, Initial residual = 0.00157364, Final residual = 3.30562e-11, No Iterations 4
Time = 5.75

nonePBiCG:  Solving for r, Initial residual = 0.00157359, Final residual = 3.29822e-11, No Iterations 4
Time = 5.76

nonePBiCG:  Solving for r, Initial residual = 0.00157357, Final residual = 3.28973e-11, No Iterations 4
Time = 5.77

nonePBiCG:  Solving for r, Initial residual = 0.00157353, Final residual = 3.28203e-11, No Iterations 4
Time = 5.78

nonePBiCG:  Solving for r, Initial residual = 0.00157348, Final residual = 3.27657e-11, No Iterations 4
Time = 5.79

nonePBiCG:  Solving for r, Initial residual = 0.00157341, Final residual = 3.27133e-11, No Iterations 4
Time = 5.8

nonePBiCG:  Solving for r, Initial residual = 0.0015733, Final residual = 3.26501e-11, No Iterations 4
Time = 5.81

nonePBiCG:  Solving for r, Initial residual = 0.00157324, Final residual = 3.25763e-11, No Iterations 4
Time = 5.82

nonePBiCG:  Solving for r, Initial residual = 0.00157324, Final residual = 3.25015e-11, No Iterations 4
Time = 5.83

nonePBiCG:  Solving for r, Initial residual = 0.0015732, Final residual = 3.24326e-11, No Iterations 4
Time = 5.84

nonePBiCG:  Solving for r, Initial residual = 0.00157315, Final residual = 3.23708e-11, No Iterations 4
Time = 5.85

nonePBiCG:  Solving for r, Initial residual = 0.00157306, Final residual = 3.2317e-11, No Iterations 4
Time = 5.86

nonePBiCG:  Solving for r, Initial residual = 0.00157293, Final residual = 3.2253e-11, No Iterations 4
Time = 5.87

nonePBiCG:  Solving for r, Initial residual = 0.00157287, Final residual = 3.21864e-11, No Iterations 4
Time = 5.88

nonePBiCG:  Solving for r, Initial residual = 0.00157289, Final residual = 3.21168e-11, No Iterations 4
Time = 5.89

nonePBiCG:  Solving for r, Initial residual = 0.00157286, Final residual = 3.20529e-11, No Iterations 4
Time = 5.9

nonePBiCG:  Solving for r, Initial residual = 0.0015728, Final residual = 3.19874e-11, No Iterations 4
Time = 5.91

nonePBiCG:  Solving for r, Initial residual = 0.0015727, Final residual = 3.19289e-11, No Iterations 4
Time = 5.92

nonePBiCG:  Solving for r, Initial residual = 0.00157255, Final residual = 3.18694e-11, No Iterations 4
Time = 5.93

nonePBiCG:  Solving for r, Initial residual = 0.00157248, Final residual = 3.18089e-11, No Iterations 4
Time = 5.94

nonePBiCG:  Solving for r, Initial residual = 0.00157251, Final residual = 3.17445e-11, No Iterations 4
Time = 5.95

nonePBiCG:  Solving for r, Initial residual = 0.00157251, Final residual = 3.16805e-11, No Iterations 4
Time = 5.96

nonePBiCG:  Solving for r, Initial residual = 0.00157244, Final residual = 3.16113e-11, No Iterations 4
Time = 5.97

nonePBiCG:  Solving for r, Initial residual = 0.00157231, Final residual = 3.15512e-11, No Iterations 4
Time = 5.98

nonePBiCG:  Solving for r, Initial residual = 0.00157217, Final residual = 3.14995e-11, No Iterations 4
Time = 5.99

nonePBiCG:  Solving for r, Initial residual = 0.00157209, Final residual = 3.14384e-11, No Iterations 4
Time = 6

nonePBiCG:  Solving for r, Initial residual = 0.00157212, Final residual = 3.13788e-11, No Iterations 4
Time = 6.01

nonePBiCG:  Solving for r, Initial residual = 0.00157212, Final residual = 3.13144e-11, No Iterations 4
Time = 6.02

nonePBiCG:  Solving for r, Initial residual = 0.00157205, Final residual = 3.12429e-11, No Iterations 4
Time = 6.03

nonePBiCG:  Solving for r, Initial residual = 0.00157191, Final residual = 3.11904e-11, No Iterations 4
Time = 6.04

nonePBiCG:  Solving for r, Initial residual = 0.00157177, Final residual = 3.1136e-11, No Iterations 4
Time = 6.05

nonePBiCG:  Solving for r, Initial residual = 0.00157168, Final residual = 3.10748e-11, No Iterations 4
Time = 6.06

nonePBiCG:  Solving for r, Initial residual = 0.00157171, Final residual = 3.10192e-11, No Iterations 4
Time = 6.07

nonePBiCG:  Solving for r, Initial residual = 0.0015717, Final residual = 3.09539e-11, No Iterations 4
Time = 6.08

nonePBiCG:  Solving for r, Initial residual = 0.00157163, Final residual = 3.08911e-11, No Iterations 4
Time = 6.09

nonePBiCG:  Solving for r, Initial residual = 0.00157151, Final residual = 3.08366e-11, No Iterations 4
Time = 6.1

nonePBiCG:  Solving for r, Initial residual = 0.00157136, Final residual = 3.07784e-11, No Iterations 4
Time = 6.11

nonePBiCG:  Solving for r, Initial residual = 0.00157126, Final residual = 3.07218e-11, No Iterations 4
Time = 6.12

nonePBiCG:  Solving for r, Initial residual = 0.00157129, Final residual = 3.06651e-11, No Iterations 4
Time = 6.13

nonePBiCG:  Solving for r, Initial residual = 0.00157126, Final residual = 3.06065e-11, No Iterations 4
Time = 6.14

nonePBiCG:  Solving for r, Initial residual = 0.0015712, Final residual = 3.05442e-11, No Iterations 4
Time = 6.15

nonePBiCG:  Solving for r, Initial residual = 0.00157109, Final residual = 3.04879e-11, No Iterations 4
Time = 6.16

nonePBiCG:  Solving for r, Initial residual = 0.00157094, Final residual = 3.04261e-11, No Iterations 4
Time = 6.17

nonePBiCG:  Solving for r, Initial residual = 0.00157084, Final residual = 3.03739e-11, No Iterations 4
Time = 6.18

nonePBiCG:  Solving for r, Initial residual = 0.00157084, Final residual = 3.03208e-11, No Iterations 4
Time = 6.19

nonePBiCG:  Solving for r, Initial residual = 0.0015708, Final residual = 3.02655e-11, No Iterations 4
Time = 6.2

nonePBiCG:  Solving for r, Initial residual = 0.00157074, Final residual = 3.02015e-11, No Iterations 4
Time = 6.21

nonePBiCG:  Solving for r, Initial residual = 0.00157065, Final residual = 3.01435e-11, No Iterations 4
Time = 6.22

nonePBiCG:  Solving for r, Initial residual = 0.00157051, Final residual = 3.0082e-11, No Iterations 4
Time = 6.23

nonePBiCG:  Solving for r, Initial residual = 0.0015704, Final residual = 3.00324e-11, No Iterations 4
Time = 6.24

nonePBiCG:  Solving for r, Initial residual = 0.00157038, Final residual = 2.99851e-11, No Iterations 4
Time = 6.25

nonePBiCG:  Solving for r, Initial residual = 0.00157033, Final residual = 2.99284e-11, No Iterations 4
Time = 6.26

nonePBiCG:  Solving for r, Initial residual = 0.00157026, Final residual = 2.98631e-11, No Iterations 4
Time = 6.27

nonePBiCG:  Solving for r, Initial residual = 0.00157019, Final residual = 2.98031e-11, No Iterations 4
Time = 6.28

nonePBiCG:  Solving for r, Initial residual = 0.00157007, Final residual = 2.97464e-11, No Iterations 4
Time = 6.29

nonePBiCG:  Solving for r, Initial residual = 0.00156993, Final residual = 2.97018e-11, No Iterations 4
Time = 6.3

nonePBiCG:  Solving for r, Initial residual = 0.0015699, Final residual = 2.96528e-11, No Iterations 4
Time = 6.31

nonePBiCG:  Solving for r, Initial residual = 0.00156985, Final residual = 2.95949e-11, No Iterations 4
Time = 6.32

nonePBiCG:  Solving for r, Initial residual = 0.00156978, Final residual = 2.95286e-11, No Iterations 4
Time = 6.33

nonePBiCG:  Solving for r, Initial residual = 0.00156971, Final residual = 2.94662e-11, No Iterations 4
Time = 6.34

nonePBiCG:  Solving for r, Initial residual = 0.00156961, Final residual = 2.94214e-11, No Iterations 4
Time = 6.35

nonePBiCG:  Solving for r, Initial residual = 0.00156946, Final residual = 2.93743e-11, No Iterations 4
Time = 6.36

nonePBiCG:  Solving for r, Initial residual = 0.00156941, Final residual = 2.93236e-11, No Iterations 4
Time = 6.37

nonePBiCG:  Solving for r, Initial residual = 0.00156936, Final residual = 2.92646e-11, No Iterations 4
Time = 6.38

nonePBiCG:  Solving for r, Initial residual = 0.00156929, Final residual = 2.91972e-11, No Iterations 4
Time = 6.39

nonePBiCG:  Solving for r, Initial residual = 0.00156922, Final residual = 2.91408e-11, No Iterations 4
Time = 6.4

nonePBiCG:  Solving for r, Initial residual = 0.00156911, Final residual = 2.90998e-11, No Iterations 4
Time = 6.41

nonePBiCG:  Solving for r, Initial residual = 0.00156895, Final residual = 2.90492e-11, No Iterations 4
Time = 6.42

nonePBiCG:  Solving for r, Initial residual = 0.00156891, Final residual = 2.89973e-11, No Iterations 4
Time = 6.43

nonePBiCG:  Solving for r, Initial residual = 0.00156886, Final residual = 2.8937e-11, No Iterations 4
Time = 6.44

nonePBiCG:  Solving for r, Initial residual = 0.00156879, Final residual = 2.88687e-11, No Iterations 4
Time = 6.45

nonePBiCG:  Solving for r, Initial residual = 0.00156872, Final residual = 2.88233e-11, No Iterations 4
Time = 6.46

nonePBiCG:  Solving for r, Initial residual = 0.00156859, Final residual = 2.87803e-11, No Iterations 4
Time = 6.47

nonePBiCG:  Solving for r, Initial residual = 0.00156843, Final residual = 2.87282e-11, No Iterations 4
Time = 6.48

nonePBiCG:  Solving for r, Initial residual = 0.00156841, Final residual = 2.86734e-11, No Iterations 4
Time = 6.49

nonePBiCG:  Solving for r, Initial residual = 0.00156835, Final residual = 2.86118e-11, No Iterations 4
Time = 6.5

nonePBiCG:  Solving for r, Initial residual = 0.00156829, Final residual = 2.85524e-11, No Iterations 4
Time = 6.51

nonePBiCG:  Solving for r, Initial residual = 0.00156819, Final residual = 2.85076e-11, No Iterations 4
Time = 6.52

nonePBiCG:  Solving for r, Initial residual = 0.00156805, Final residual = 2.84626e-11, No Iterations 4
Time = 6.53

nonePBiCG:  Solving for r, Initial residual = 0.00156789, Final residual = 2.84091e-11, No Iterations 4
Time = 6.54

nonePBiCG:  Solving for r, Initial residual = 0.00156788, Final residual = 2.83515e-11, No Iterations 4
Time = 6.55

nonePBiCG:  Solving for r, Initial residual = 0.00156784, Final residual = 2.82925e-11, No Iterations 4
Time = 6.56

nonePBiCG:  Solving for r, Initial residual = 0.00156777, Final residual = 2.82408e-11, No Iterations 4
Time = 6.57

nonePBiCG:  Solving for r, Initial residual = 0.00156766, Final residual = 2.81936e-11, No Iterations 4
Time = 6.58

nonePBiCG:  Solving for r, Initial residual = 0.0015675, Final residual = 2.81467e-11, No Iterations 4
Time = 6.59

nonePBiCG:  Solving for r, Initial residual = 0.00156733, Final residual = 2.80916e-11, No Iterations 4
Time = 6.6

nonePBiCG:  Solving for r, Initial residual = 0.00156734, Final residual = 2.80314e-11, No Iterations 4
Time = 6.61

nonePBiCG:  Solving for r, Initial residual = 0.00156731, Final residual = 2.79792e-11, No Iterations 4
Time = 6.62

nonePBiCG:  Solving for r, Initial residual = 0.00156723, Final residual = 2.79303e-11, No Iterations 4
Time = 6.63

nonePBiCG:  Solving for r, Initial residual = 0.00156711, Final residual = 2.78808e-11, No Iterations 4
Time = 6.64

nonePBiCG:  Solving for r, Initial residual = 0.00156694, Final residual = 2.78322e-11, No Iterations 4
Time = 6.65

nonePBiCG:  Solving for r, Initial residual = 0.00156677, Final residual = 2.77756e-11, No Iterations 4
Time = 6.66

nonePBiCG:  Solving for r, Initial residual = 0.00156678, Final residual = 2.77189e-11, No Iterations 4
Time = 6.67

nonePBiCG:  Solving for r, Initial residual = 0.00156677, Final residual = 2.76715e-11, No Iterations 4
Time = 6.68

nonePBiCG:  Solving for r, Initial residual = 0.00156669, Final residual = 2.76209e-11, No Iterations 4
Time = 6.69

nonePBiCG:  Solving for r, Initial residual = 0.00156654, Final residual = 2.75693e-11, No Iterations 4
Time = 6.7

nonePBiCG:  Solving for r, Initial residual = 0.00156638, Final residual = 2.7519e-11, No Iterations 4
Time = 6.71

nonePBiCG:  Solving for r, Initial residual = 0.0015662, Final residual = 2.74627e-11, No Iterations 4
Time = 6.72

nonePBiCG:  Solving for r, Initial residual = 0.00156621, Final residual = 2.74078e-11, No Iterations 4
Time = 6.73

nonePBiCG:  Solving for r, Initial residual = 0.00156621, Final residual = 2.73644e-11, No Iterations 4
[...]
Time = 8.3

nonePBiCG:  Solving for r, Initial residual = 0.00154776, Final residual = 1.95527e-11, No Iterations 4
Time = 8.31

nonePBiCG:  Solving for r, Initial residual = 0.00154761, Final residual = 1.95034e-11, No Iterations 4
Time = 8.32

nonePBiCG:  Solving for r, Initial residual = 0.00154743, Final residual = 1.94493e-11, No Iterations 4
Time = 8.33

nonePBiCG:  Solving for r, Initial residual = 0.00154723, Final residual = 1.93987e-11, No Iterations 4
Time = 8.34

nonePBiCG:  Solving for r, Initial residual = 0.00154707, Final residual = 1.93498e-11, No Iterations 4
Time = 8.35

nonePBiCG:  Solving for r, Initial residual = 0.00154704, Final residual = 1.93086e-11, No Iterations 4
Time = 8.36

nonePBiCG:  Solving for r, Initial residual = 0.00154694, Final residual = 1.92636e-11, No Iterations 4
Time = 8.37

nonePBiCG:  Solving for r, Initial residual = 0.0015468, Final residual = 1.92126e-11, No Iterations 4
Time = 8.38

nonePBiCG:  Solving for r, Initial residual = 0.00154663, Final residual = 1.91586e-11, No Iterations 4
Time = 8.39

nonePBiCG:  Solving for r, Initial residual = 0.00154643, Final residual = 1.91088e-11, No Iterations 4
Time = 8.4

nonePBiCG:  Solving for r, Initial residual = 0.00154625, Final residual = 1.90639e-11, No Iterations 4
Time = 8.41

nonePBiCG:  Solving for r, Initial residual = 0.00154621, Final residual = 1.90216e-11, No Iterations 4
Time = 8.42

nonePBiCG:  Solving for r, Initial residual = 0.00154612, Final residual = 1.89747e-11, No Iterations 4
Time = 8.43

nonePBiCG:  Solving for r, Initial residual = 0.00154599, Final residual = 1.89222e-11, No Iterations 4
Time = 8.44

nonePBiCG:  Solving for r, Initial residual = 0.00154582, Final residual = 1.88684e-11, No Iterations 4
Time = 8.45

nonePBiCG:  Solving for r, Initial residual = 0.00154563, Final residual = 1.88233e-11, No Iterations 4
Time = 8.46

nonePBiCG:  Solving for r, Initial residual = 0.00154543, Final residual = 1.87784e-11, No Iterations 4
Time = 8.47

nonePBiCG:  Solving for r, Initial residual = 0.00154537, Final residual = 1.87348e-11, No Iterations 4
Time = 8.48

nonePBiCG:  Solving for r, Initial residual = 0.00154529, Final residual = 1.86862e-11, No Iterations 4
Time = 8.49

nonePBiCG:  Solving for r, Initial residual = 0.00154517, Final residual = 1.8632e-11, No Iterations 4
Time = 8.5

nonePBiCG:  Solving for r, Initial residual = 0.00154502, Final residual = 1.8583e-11, No Iterations 4
Time = 8.51

nonePBiCG:  Solving for r, Initial residual = 0.00154481, Final residual = 1.85393e-11, No Iterations 4
Time = 8.52

nonePBiCG:  Solving for r, Initial residual = 0.0015446, Final residual = 1.84938e-11, No Iterations 4
Time = 8.53

nonePBiCG:  Solving for r, Initial residual = 0.00154454, Final residual = 1.84486e-11, No Iterations 4
Time = 8.54

nonePBiCG:  Solving for r, Initial residual = 0.00154445, Final residual = 1.83982e-11, No Iterations 4
Time = 8.55

nonePBiCG:  Solving for r, Initial residual = 0.00154435, Final residual = 1.83437e-11, No Iterations 4
Time = 8.56

nonePBiCG:  Solving for r, Initial residual = 0.0015442, Final residual = 1.83014e-11, No Iterations 4
Time = 8.57

nonePBiCG:  Solving for r, Initial residual = 0.00154399, Final residual = 1.82557e-11, No Iterations 4
Time = 8.58

nonePBiCG:  Solving for r, Initial residual = 0.00154376, Final residual = 1.821e-11, No Iterations 4
Time = 8.59

nonePBiCG:  Solving for r, Initial residual = 0.0015437, Final residual = 1.81631e-11, No Iterations 4
Time = 8.6

nonePBiCG:  Solving for r, Initial residual = 0.00154362, Final residual = 1.81109e-11, No Iterations 4
Time = 8.61

nonePBiCG:  Solving for r, Initial residual = 0.00154351, Final residual = 1.80617e-11, No Iterations 4
Time = 8.62

nonePBiCG:  Solving for r, Initial residual = 0.00154338, Final residual = 1.80201e-11, No Iterations 4
Time = 8.63

nonePBiCG:  Solving for r, Initial residual = 0.00154317, Final residual = 1.79726e-11, No Iterations 4
Time = 8.64

nonePBiCG:  Solving for r, Initial residual = 0.00154293, Final residual = 1.79269e-11, No Iterations 4
Time = 8.65

nonePBiCG:  Solving for r, Initial residual = 0.00154286, Final residual = 1.78782e-11, No Iterations 4
Time = 8.66

nonePBiCG:  Solving for r, Initial residual = 0.00154278, Final residual = 1.78274e-11, No Iterations 4
Time = 8.67

nonePBiCG:  Solving for r, Initial residual = 0.00154268, Final residual = 1.77828e-11, No Iterations 4
Time = 8.68

nonePBiCG:  Solving for r, Initial residual = 0.00154254, Final residual = 1.77394e-11, No Iterations 4
Time = 8.69

nonePBiCG:  Solving for r, Initial residual = 0.00154234, Final residual = 1.7691e-11, No Iterations 4
Time = 8.7

nonePBiCG:  Solving for r, Initial residual = 0.00154209, Final residual = 1.76446e-11, No Iterations 4
Time = 8.71

nonePBiCG:  Solving for r, Initial residual = 0.00154202, Final residual = 1.75953e-11, No Iterations 4
Time = 8.72

nonePBiCG:  Solving for r, Initial residual = 0.00154194, Final residual = 1.75469e-11, No Iterations 4
Time = 8.73

nonePBiCG:  Solving for r, Initial residual = 0.00154184, Final residual = 1.75047e-11, No Iterations 4
Time = 8.74

nonePBiCG:  Solving for r, Initial residual = 0.00154169, Final residual = 1.74594e-11, No Iterations 4
Time = 8.75

nonePBiCG:  Solving for r, Initial residual = 0.00154149, Final residual = 1.74102e-11, No Iterations 4
Time = 8.76

nonePBiCG:  Solving for r, Initial residual = 0.00154125, Final residual = 1.73633e-11, No Iterations 4
Time = 8.77

nonePBiCG:  Solving for r, Initial residual = 0.00154118, Final residual = 1.73172e-11, No Iterations 4
Time = 8.78

nonePBiCG:  Solving for r, Initial residual = 0.0015411, Final residual = 1.72691e-11, No Iterations 4
Time = 8.79

nonePBiCG:  Solving for r, Initial residual = 0.00154099, Final residual = 1.72274e-11, No Iterations 4
Time = 8.8

nonePBiCG:  Solving for r, Initial residual = 0.00154084, Final residual = 1.71803e-11, No Iterations 4
Time = 8.81

nonePBiCG:  Solving for r, Initial residual = 0.00154064, Final residual = 1.71313e-11, No Iterations 4
Time = 8.82

nonePBiCG:  Solving for r, Initial residual = 0.00154041, Final residual = 1.70871e-11, No Iterations 4
Time = 8.83

nonePBiCG:  Solving for r, Initial residual = 0.00154034, Final residual = 1.70402e-11, No Iterations 4
Time = 8.84

nonePBiCG:  Solving for r, Initial residual = 0.00154026, Final residual = 1.69947e-11, No Iterations 4
Time = 8.85

nonePBiCG:  Solving for r, Initial residual = 0.00154014, Final residual = 1.69511e-11, No Iterations 4
Time = 8.86

nonePBiCG:  Solving for r, Initial residual = 0.00153997, Final residual = 1.69022e-11, No Iterations 4
Time = 8.87

nonePBiCG:  Solving for r, Initial residual = 0.00153977, Final residual = 1.68559e-11, No Iterations 4
Time = 8.88

nonePBiCG:  Solving for r, Initial residual = 0.00153955, Final residual = 1.68127e-11, No Iterations 4
Time = 8.89

nonePBiCG:  Solving for r, Initial residual = 0.0015395, Final residual = 1.67642e-11, No Iterations 4
Time = 8.9

nonePBiCG:  Solving for r, Initial residual = 0.00153942, Final residual = 1.67213e-11, No Iterations 4
Time = 8.91

nonePBiCG:  Solving for r, Initial residual = 0.00153929, Final residual = 1.66759e-11, No Iterations 4
Time = 8.92

nonePBiCG:  Solving for r, Initial residual = 0.00153911, Final residual = 1.6626e-11, No Iterations 4
Time = 8.93

nonePBiCG:  Solving for r, Initial residual = 0.00153891, Final residual = 1.65842e-11, No Iterations 4
Time = 8.94

nonePBiCG:  Solving for r, Initial residual = 0.0015387, Final residual = 1.65394e-11, No Iterations 4
Time = 8.95

nonePBiCG:  Solving for r, Initial residual = 0.00153866, Final residual = 1.64909e-11, No Iterations 4
Time = 8.96

nonePBiCG:  Solving for r, Initial residual = 0.00153857, Final residual = 1.6449e-11, No Iterations 4
Time = 8.97

nonePBiCG:  Solving for r, Initial residual = 0.00153842, Final residual = 1.64019e-11, No Iterations 4
Time = 8.98

nonePBiCG:  Solving for r, Initial residual = 0.00153824, Final residual = 1.63558e-11, No Iterations 4
Time = 8.99

nonePBiCG:  Solving for r, Initial residual = 0.00153804, Final residual = 1.63136e-11, No Iterations 4
Time = 9

nonePBiCG:  Solving for r, Initial residual = 0.00153783, Final residual = 1.62673e-11, No Iterations 4
Time = 9.01

nonePBiCG:  Solving for r, Initial residual = 0.00153781, Final residual = 1.62216e-11, No Iterations 4
Time = 9.02

nonePBiCG:  Solving for r, Initial residual = 0.00153771, Final residual = 1.61781e-11, No Iterations 4
Time = 9.03

nonePBiCG:  Solving for r, Initial residual = 0.00153756, Final residual = 1.6133e-11, No Iterations 4
Time = 9.04

nonePBiCG:  Solving for r, Initial residual = 0.00153738, Final residual = 1.60878e-11, No Iterations 4
Time = 9.05

nonePBiCG:  Solving for r, Initial residual = 0.00153718, Final residual = 1.60445e-11, No Iterations 4
Time = 9.06

nonePBiCG:  Solving for r, Initial residual = 0.00153696, Final residual = 9.97742e-10, No Iterations 3
Time = 9.07

nonePBiCG:  Solving for r, Initial residual = 0.00153694, Final residual = 9.95005e-10, No Iterations 3
Time = 9.08

nonePBiCG:  Solving for r, Initial residual = 0.00153685, Final residual = 9.92393e-10, No Iterations 3
Time = 9.09

nonePBiCG:  Solving for r, Initial residual = 0.00153669, Final residual = 9.8963e-10, No Iterations 3
Time = 9.1

nonePBiCG:  Solving for r, Initial residual = 0.00153651, Final residual = 9.87366e-10, No Iterations 3
Time = 9.11

nonePBiCG:  Solving for r, Initial residual = 0.00153631, Final residual = 9.85137e-10, No Iterations 3
Time = 9.12

nonePBiCG:  Solving for r, Initial residual = 0.0015361, Final residual = 9.82676e-10, No Iterations 3
Time = 9.13

nonePBiCG:  Solving for r, Initial residual = 0.00153607, Final residual = 9.79924e-10, No Iterations 3
Time = 9.14

nonePBiCG:  Solving for r, Initial residual = 0.00153597, Final residual = 9.77355e-10, No Iterations 3
Time = 9.15

nonePBiCG:  Solving for r, Initial residual = 0.00153582, Final residual = 9.74883e-10, No Iterations 3
Time = 9.16

nonePBiCG:  Solving for r, Initial residual = 0.00153565, Final residual = 9.72609e-10, No Iterations 3
Time = 9.17

nonePBiCG:  Solving for r, Initial residual = 0.00153545, Final residual = 9.70409e-10, No Iterations 3
Time = 9.18

nonePBiCG:  Solving for r, Initial residual = 0.00153523, Final residual = 9.67917e-10, No Iterations 3
Time = 9.19

nonePBiCG:  Solving for r, Initial residual = 0.00153518, Final residual = 9.65219e-10, No Iterations 3
Time = 9.2

nonePBiCG:  Solving for r, Initial residual = 0.00153509, Final residual = 9.62739e-10, No Iterations 3
Time = 9.21

nonePBiCG:  Solving for r, Initial residual = 0.00153496, Final residual = 9.60433e-10, No Iterations 3
Time = 9.22

nonePBiCG:  Solving for r, Initial residual = 0.00153478, Final residual = 9.58214e-10, No Iterations 3
Time = 9.23

nonePBiCG:  Solving for r, Initial residual = 0.00153458, Final residual = 9.5598e-10, No Iterations 3
Time = 9.24

nonePBiCG:  Solving for r, Initial residual = 0.00153435, Final residual = 9.53453e-10, No Iterations 3
Time = 9.25

nonePBiCG:  Solving for r, Initial residual = 0.00153429, Final residual = 9.50806e-10, No Iterations 3
Time = 9.26

nonePBiCG:  Solving for r, Initial residual = 0.00153421, Final residual = 9.48528e-10, No Iterations 3
Time = 9.27

nonePBiCG:  Solving for r, Initial residual = 0.00153408, Final residual = 9.46271e-10, No Iterations 3
Time = 9.28

nonePBiCG:  Solving for r, Initial residual = 0.00153391, Final residual = 9.44108e-10, No Iterations 3
Time = 9.29

nonePBiCG:  Solving for r, Initial residual = 0.00153372, Final residual = 9.41844e-10, No Iterations 3
Time = 9.3

nonePBiCG:  Solving for r, Initial residual = 0.00153348, Final residual = 9.39286e-10, No Iterations 3
Time = 9.31

nonePBiCG:  Solving for r, Initial residual = 0.0015334, Final residual = 9.36869e-10, No Iterations 3
Time = 9.32

nonePBiCG:  Solving for r, Initial residual = 0.00153332, Final residual = 9.34669e-10, No Iterations 3
Time = 9.33

nonePBiCG:  Solving for r, Initial residual = 0.0015332, Final residual = 9.32468e-10, No Iterations 3
Time = 9.34

nonePBiCG:  Solving for r, Initial residual = 0.00153305, Final residual = 9.30287e-10, No Iterations 3
Time = 9.35

nonePBiCG:  Solving for r, Initial residual = 0.00153284, Final residual = 9.27991e-10, No Iterations 3
Time = 9.36

nonePBiCG:  Solving for r, Initial residual = 0.00153259, Final residual = 9.25436e-10, No Iterations 3
Time = 9.37

nonePBiCG:  Solving for r, Initial residual = 0.00153251, Final residual = 9.23248e-10, No Iterations 3
Time = 9.38

nonePBiCG:  Solving for r, Initial residual = 0.00153242, Final residual = 9.21089e-10, No Iterations 3
Time = 9.39

nonePBiCG:  Solving for r, Initial residual = 0.00153232, Final residual = 9.18983e-10, No Iterations 3
Time = 9.4

nonePBiCG:  Solving for r, Initial residual = 0.00153218, Final residual = 9.16742e-10, No Iterations 3
Time = 9.41

nonePBiCG:  Solving for r, Initial residual = 0.00153197, Final residual = 9.14417e-10, No Iterations 3
Time = 9.42

nonePBiCG:  Solving for r, Initial residual = 0.0015317, Final residual = 9.12104e-10, No Iterations 3
Time = 9.43

nonePBiCG:  Solving for r, Initial residual = 0.00153162, Final residual = 9.099e-10, No Iterations 3
Time = 9.44

nonePBiCG:  Solving for r, Initial residual = 0.00153153, Final residual = 9.07781e-10, No Iterations 3
Time = 9.45

nonePBiCG:  Solving for r, Initial residual = 0.00153143, Final residual = 9.05764e-10, No Iterations 3
Time = 9.46

nonePBiCG:  Solving for r, Initial residual = 0.0015313, Final residual = 9.03499e-10, No Iterations 3
Time = 9.47

nonePBiCG:  Solving for r, Initial residual = 0.00153109, Final residual = 9.01208e-10, No Iterations 3
Time = 9.48

nonePBiCG:  Solving for r, Initial residual = 0.00153082, Final residual = 8.99049e-10, No Iterations 3
Time = 9.49

nonePBiCG:  Solving for r, Initial residual = 0.00153072, Final residual = 8.96857e-10, No Iterations 3
Time = 9.5

nonePBiCG:  Solving for r, Initial residual = 0.00153064, Final residual = 8.94835e-10, No Iterations 3
Time = 9.51

nonePBiCG:  Solving for r, Initial residual = 0.00153054, Final residual = 8.92813e-10, No Iterations 3
Time = 9.52

nonePBiCG:  Solving for r, Initial residual = 0.00153041, Final residual = 8.90527e-10, No Iterations 3
Time = 9.53

nonePBiCG:  Solving for r, Initial residual = 0.0015302, Final residual = 8.88371e-10, No Iterations 3
Time = 9.54

nonePBiCG:  Solving for r, Initial residual = 0.00152993, Final residual = 8.86254e-10, No Iterations 3
Time = 9.55

nonePBiCG:  Solving for r, Initial residual = 0.00152983, Final residual = 8.84106e-10, No Iterations 3
Time = 9.56

nonePBiCG:  Solving for r, Initial residual = 0.00152975, Final residual = 8.82168e-10, No Iterations 3
Time = 9.57

nonePBiCG:  Solving for r, Initial residual = 0.00152965, Final residual = 8.80122e-10, No Iterations 3
Time = 9.58

nonePBiCG:  Solving for r, Initial residual = 0.00152951, Final residual = 8.7795e-10, No Iterations 3
Time = 9.59

nonePBiCG:  Solving for r, Initial residual = 0.0015293, Final residual = 8.75786e-10, No Iterations 3
Time = 9.6

nonePBiCG:  Solving for r, Initial residual = 0.00152904, Final residual = 8.73715e-10, No Iterations 3
Time = 9.61

nonePBiCG:  Solving for r, Initial residual = 0.00152894, Final residual = 8.71616e-10, No Iterations 3
Time = 9.62

nonePBiCG:  Solving for r, Initial residual = 0.00152886, Final residual = 8.69754e-10, No Iterations 3
Time = 9.63

nonePBiCG:  Solving for r, Initial residual = 0.00152876, Final residual = 8.67685e-10, No Iterations 3
Time = 9.64

nonePBiCG:  Solving for r, Initial residual = 0.0015286, Final residual = 8.65679e-10, No Iterations 3
Time = 9.65

nonePBiCG:  Solving for r, Initial residual = 0.0015284, Final residual = 8.63454e-10, No Iterations 3
Time = 9.66

nonePBiCG:  Solving for r, Initial residual = 0.00152815, Final residual = 8.61431e-10, No Iterations 3
Time = 9.67

nonePBiCG:  Solving for r, Initial residual = 0.00152805, Final residual = 8.59479e-10, No Iterations 3
Time = 9.68

nonePBiCG:  Solving for r, Initial residual = 0.00152797, Final residual = 8.57589e-10, No Iterations 3
Time = 9.69

nonePBiCG:  Solving for r, Initial residual = 0.00152786, Final residual = 8.55673e-10, No Iterations 3
Time = 9.7

nonePBiCG:  Solving for r, Initial residual = 0.00152769, Final residual = 8.5365e-10, No Iterations 3
Time = 9.71

nonePBiCG:  Solving for r, Initial residual = 0.00152749, Final residual = 8.51434e-10, No Iterations 3
Time = 9.72

nonePBiCG:  Solving for r, Initial residual = 0.00152726, Final residual = 8.49445e-10, No Iterations 3
Time = 9.73

nonePBiCG:  Solving for r, Initial residual = 0.00152716, Final residual = 8.47584e-10, No Iterations 3
Time = 9.74

nonePBiCG:  Solving for r, Initial residual = 0.00152708, Final residual = 8.45702e-10, No Iterations 3
Time = 9.75

nonePBiCG:  Solving for r, Initial residual = 0.00152696, Final residual = 8.43908e-10, No Iterations 3
Time = 9.76

nonePBiCG:  Solving for r, Initial residual = 0.00152678, Final residual = 8.41862e-10, No Iterations 3
Time = 9.77

nonePBiCG:  Solving for r, Initial residual = 0.00152658, Final residual = 8.39686e-10, No Iterations 3
Time = 9.78

nonePBiCG:  Solving for r, Initial residual = 0.00152636, Final residual = 8.37726e-10, No Iterations 3
Time = 9.79

nonePBiCG:  Solving for r, Initial residual = 0.00152628, Final residual = 8.35925e-10, No Iterations 3
Time = 9.8

nonePBiCG:  Solving for r, Initial residual = 0.00152619, Final residual = 8.3419e-10, No Iterations 3
Time = 9.81

nonePBiCG:  Solving for r, Initial residual = 0.00152605, Final residual = 8.3237e-10, No Iterations 3
Time = 9.82

nonePBiCG:  Solving for r, Initial residual = 0.00152587, Final residual = 8.3031e-10, No Iterations 3
Time = 9.83

nonePBiCG:  Solving for r, Initial residual = 0.00152567, Final residual = 8.28172e-10, No Iterations 3
Time = 9.84

nonePBiCG:  Solving for r, Initial residual = 0.00152546, Final residual = 8.2631e-10, No Iterations 3
Time = 9.85

nonePBiCG:  Solving for r, Initial residual = 0.00152538, Final residual = 8.24566e-10, No Iterations 3
Time = 9.86

nonePBiCG:  Solving for r, Initial residual = 0.00152529, Final residual = 8.22904e-10, No Iterations 3
Time = 9.87

nonePBiCG:  Solving for r, Initial residual = 0.00152514, Final residual = 8.21061e-10, No Iterations 3
Time = 9.88

nonePBiCG:  Solving for r, Initial residual = 0.00152496, Final residual = 8.18989e-10, No Iterations 3
Time = 9.89

nonePBiCG:  Solving for r, Initial residual = 0.00152477, Final residual = 8.16927e-10, No Iterations 3
Time = 9.9

nonePBiCG:  Solving for r, Initial residual = 0.00152455, Final residual = 8.15117e-10, No Iterations 3
Time = 9.91

nonePBiCG:  Solving for r, Initial residual = 0.00152448, Final residual = 8.13527e-10, No Iterations 3
Time = 9.92

nonePBiCG:  Solving for r, Initial residual = 0.00152439, Final residual = 8.11838e-10, No Iterations 3
Time = 9.93

nonePBiCG:  Solving for r, Initial residual = 0.00152423, Final residual = 8.09977e-10, No Iterations 3
Time = 9.94

nonePBiCG:  Solving for r, Initial residual = 0.00152406, Final residual = 8.07895e-10, No Iterations 3
Time = 9.95

nonePBiCG:  Solving for r, Initial residual = 0.00152386, Final residual = 8.0598e-10, No Iterations 3
Time = 9.96

nonePBiCG:  Solving for r, Initial residual = 0.00152364, Final residual = 8.04289e-10, No Iterations 3
Time = 9.97

nonePBiCG:  Solving for r, Initial residual = 0.00152357, Final residual = 8.02698e-10, No Iterations 3
Time = 9.98

nonePBiCG:  Solving for r, Initial residual = 0.00152348, Final residual = 8.00984e-10, No Iterations 3
Time = 9.99

nonePBiCG:  Solving for r, Initial residual = 0.00152332, Final residual = 7.99113e-10, No Iterations 3
Time = 10

nonePBiCG:  Solving for r, Initial residual = 0.00152315, Final residual = 7.97038e-10, No Iterations 3
End

