/*---------------------------------------------------------------------------*\
| =========                 |                                                 |
| \\      /  F ield         | OpenFOAM: The Open Source CFD Toolbox           |
|  \\    /   O peration     | Version:  v2006                                 |
|   \\  /    A nd           | Website:  www.openfoam.com                      |
|    \\/     M anipulation  |                                                 |
\*---------------------------------------------------------------------------*/
Build  : _b45f8f6f58-20200629 OPENFOAM=2006
Arch   : "LSB;label=32;scalar=64"
Exec   : transpDomFoam
Date   : Aug 25 2020
Time   : 13:14:15
Host   : bounty.maths.sissa.it
PID    : 27741
I/O    : uncollated
Case   : /u/d/dpapapic/OpenFOAM/dpapapic-v2006/run/test/chap2/patch1/sim3
nProcs : 1
trapFpe: Floating point exception trapping enabled (FOAM_SIGFPE).
fileModificationChecking : Monitoring run-time modified files using timeStampMaster (fileModificationSkew 5, maxFileModificationPolls 20)
allowSystemOperations : Allowing user-supplied system call operations

// * * * * * * * * * * * * * * * * * * * * * * * * * * * * * * * * * * * * * //
Create time

Create mesh for time = 0

Reading-in field r

Reading-in field U

Reading/calculating face flux field phi

Reading-in constant/transportProperties

Reading-in entries of keyword nu


Computing transported (scalar) field

Courant Number mean: 0.583333 max: 0.583333
Time = 0.05

nonePBiCG:  Solving for r, Initial residual = 0.0134901, Final residual = 3.82865e-10, No Iterations 14
Time = 0.1

nonePBiCG:  Solving for r, Initial residual = 0.0160609, Final residual = 3.85385e-10, No Iterations 14
Time = 0.15

nonePBiCG:  Solving for r, Initial residual = 0.0171279, Final residual = 3.86439e-10, No Iterations 14
Time = 0.2

nonePBiCG:  Solving for r, Initial residual = 0.0173533, Final residual = 3.9683e-10, No Iterations 14
Time = 0.25

nonePBiCG:  Solving for r, Initial residual = 0.0190828, Final residual = 3.97421e-10, No Iterations 14
Time = 0.3

nonePBiCG:  Solving for r, Initial residual = 0.0194485, Final residual = 3.699e-10, No Iterations 14
Time = 0.35

nonePBiCG:  Solving for r, Initial residual = 0.0194441, Final residual = 3.61029e-10, No Iterations 14
Time = 0.4

nonePBiCG:  Solving for r, Initial residual = 0.0198092, Final residual = 3.65853e-10, No Iterations 14
Time = 0.45

nonePBiCG:  Solving for r, Initial residual = 0.0199804, Final residual = 3.3837e-10, No Iterations 14
Time = 0.5

nonePBiCG:  Solving for r, Initial residual = 0.0193772, Final residual = 3.16678e-10, No Iterations 14
Time = 0.55

nonePBiCG:  Solving for r, Initial residual = 0.0196347, Final residual = 3.10767e-10, No Iterations 14
Time = 0.6

nonePBiCG:  Solving for r, Initial residual = 0.0194825, Final residual = 3.01932e-10, No Iterations 14
Time = 0.65

nonePBiCG:  Solving for r, Initial residual = 0.0188631, Final residual = 2.80578e-10, No Iterations 14
Time = 0.7

nonePBiCG:  Solving for r, Initial residual = 0.0189378, Final residual = 9.81078e-10, No Iterations 13
Time = 0.75

nonePBiCG:  Solving for r, Initial residual = 0.0184168, Final residual = 9.38374e-10, No Iterations 13
Time = 0.8

nonePBiCG:  Solving for r, Initial residual = 0.0181248, Final residual = 8.89146e-10, No Iterations 13
Time = 0.85

nonePBiCG:  Solving for r, Initial residual = 0.0179361, Final residual = 8.52816e-10, No Iterations 13
Time = 0.9

nonePBiCG:  Solving for r, Initial residual = 0.0176772, Final residual = 7.9285e-10, No Iterations 13
Time = 0.95

nonePBiCG:  Solving for r, Initial residual = 0.0172565, Final residual = 7.52254e-10, No Iterations 13
Time = 1

nonePBiCG:  Solving for r, Initial residual = 0.0169434, Final residual = 7.07579e-10, No Iterations 13
Time = 1.05

nonePBiCG:  Solving for r, Initial residual = 0.0167083, Final residual = 6.75175e-10, No Iterations 13
Time = 1.1

nonePBiCG:  Solving for r, Initial residual = 0.0165522, Final residual = 6.39104e-10, No Iterations 13
Time = 1.15

nonePBiCG:  Solving for r, Initial residual = 0.0165705, Final residual = 6.00285e-10, No Iterations 13
Time = 1.2

nonePBiCG:  Solving for r, Initial residual = 0.0163395, Final residual = 5.68055e-10, No Iterations 13
Time = 1.25

nonePBiCG:  Solving for r, Initial residual = 0.0161965, Final residual = 5.32429e-10, No Iterations 13
Time = 1.3

nonePBiCG:  Solving for r, Initial residual = 0.0161774, Final residual = 4.90327e-10, No Iterations 13
Time = 1.35

nonePBiCG:  Solving for r, Initial residual = 0.0162042, Final residual = 4.7649e-10, No Iterations 13
Time = 1.4

nonePBiCG:  Solving for r, Initial residual = 0.016186, Final residual = 4.52011e-10, No Iterations 13
Time = 1.45

nonePBiCG:  Solving for r, Initial residual = 0.0162217, Final residual = 4.26854e-10, No Iterations 13
Time = 1.5

nonePBiCG:  Solving for r, Initial residual = 0.0162266, Final residual = 4.0046e-10, No Iterations 13
Time = 1.55

nonePBiCG:  Solving for r, Initial residual = 0.0161697, Final residual = 3.7346e-10, No Iterations 13
Time = 1.6

nonePBiCG:  Solving for r, Initial residual = 0.016213, Final residual = 3.59365e-10, No Iterations 13
Time = 1.65

nonePBiCG:  Solving for r, Initial residual = 0.0162175, Final residual = 3.33374e-10, No Iterations 13
Time = 1.7

nonePBiCG:  Solving for r, Initial residual = 0.0162383, Final residual = 3.08522e-10, No Iterations 13
Time = 1.75

nonePBiCG:  Solving for r, Initial residual = 0.0161718, Final residual = 2.95382e-10, No Iterations 13
Time = 1.8

nonePBiCG:  Solving for r, Initial residual = 0.0162175, Final residual = 9.39197e-10, No Iterations 12
Time = 1.85

nonePBiCG:  Solving for r, Initial residual = 0.0161622, Final residual = 8.74833e-10, No Iterations 12
Time = 1.9

nonePBiCG:  Solving for r, Initial residual = 0.0161429, Final residual = 8.06565e-10, No Iterations 12
Time = 1.95

nonePBiCG:  Solving for r, Initial residual = 0.0161071, Final residual = 7.26778e-10, No Iterations 12
Time = 2

nonePBiCG:  Solving for r, Initial residual = 0.016089, Final residual = 6.97586e-10, No Iterations 12
Time = 2.05

nonePBiCG:  Solving for r, Initial residual = 0.0160862, Final residual = 6.54033e-10, No Iterations 12
Time = 2.1

nonePBiCG:  Solving for r, Initial residual = 0.016037, Final residual = 6.22125e-10, No Iterations 12
Time = 2.15

nonePBiCG:  Solving for r, Initial residual = 0.016044, Final residual = 5.60453e-10, No Iterations 12
Time = 2.2

nonePBiCG:  Solving for r, Initial residual = 0.0160043, Final residual = 5.41582e-10, No Iterations 12
Time = 2.25

nonePBiCG:  Solving for r, Initial residual = 0.0159887, Final residual = 5.04609e-10, No Iterations 12
Time = 2.3

nonePBiCG:  Solving for r, Initial residual = 0.0159513, Final residual = 4.62757e-10, No Iterations 12
Time = 2.35

nonePBiCG:  Solving for r, Initial residual = 0.0159364, Final residual = 4.40629e-10, No Iterations 12
Time = 2.4

nonePBiCG:  Solving for r, Initial residual = 0.0159034, Final residual = 4.13603e-10, No Iterations 12
Time = 2.45

nonePBiCG:  Solving for r, Initial residual = 0.0158883, Final residual = 3.88589e-10, No Iterations 12
Time = 2.5

nonePBiCG:  Solving for r, Initial residual = 0.0158568, Final residual = 3.66149e-10, No Iterations 12
Time = 2.55

nonePBiCG:  Solving for r, Initial residual = 0.0158475, Final residual = 3.44193e-10, No Iterations 12
Time = 2.6

nonePBiCG:  Solving for r, Initial residual = 0.0158054, Final residual = 3.29058e-10, No Iterations 12
Time = 2.65

nonePBiCG:  Solving for r, Initial residual = 0.0158013, Final residual = 3.05103e-10, No Iterations 12
Time = 2.7

nonePBiCG:  Solving for r, Initial residual = 0.015758, Final residual = 2.93775e-10, No Iterations 12
Time = 2.75

nonePBiCG:  Solving for r, Initial residual = 0.0157536, Final residual = 2.74101e-10, No Iterations 12
Time = 2.8

nonePBiCG:  Solving for r, Initial residual = 0.0157207, Final residual = 9.8103e-10, No Iterations 11
Time = 2.85

nonePBiCG:  Solving for r, Initial residual = 0.015705, Final residual = 8.99977e-10, No Iterations 11
Time = 2.9

nonePBiCG:  Solving for r, Initial residual = 0.0156818, Final residual = 8.79279e-10, No Iterations 11
Time = 2.95

nonePBiCG:  Solving for r, Initial residual = 0.0156567, Final residual = 8.13379e-10, No Iterations 11
Time = 3

nonePBiCG:  Solving for r, Initial residual = 0.0156404, Final residual = 7.45565e-10, No Iterations 11
Time = 3.05

nonePBiCG:  Solving for r, Initial residual = 0.0156135, Final residual = 7.07004e-10, No Iterations 11
Time = 3.1

nonePBiCG:  Solving for r, Initial residual = 0.0155988, Final residual = 6.6592e-10, No Iterations 11
Time = 3.15

nonePBiCG:  Solving for r, Initial residual = 0.0155725, Final residual = 6.00016e-10, No Iterations 11
Time = 3.2

nonePBiCG:  Solving for r, Initial residual = 0.0155569, Final residual = 5.76873e-10, No Iterations 11
Time = 3.25

nonePBiCG:  Solving for r, Initial residual = 0.0155306, Final residual = 5.31482e-10, No Iterations 11
Time = 3.3

nonePBiCG:  Solving for r, Initial residual = 0.0155143, Final residual = 4.79861e-10, No Iterations 11
Time = 3.35

nonePBiCG:  Solving for r, Initial residual = 0.0154894, Final residual = 4.65105e-10, No Iterations 11
Time = 3.4

nonePBiCG:  Solving for r, Initial residual = 0.0154776, Final residual = 4.295e-10, No Iterations 11
Time = 3.45

nonePBiCG:  Solving for r, Initial residual = 0.0154454, Final residual = 3.88249e-10, No Iterations 11
Time = 3.5

nonePBiCG:  Solving for r, Initial residual = 0.0154403, Final residual = 3.72366e-10, No Iterations 11
Time = 3.55

nonePBiCG:  Solving for r, Initial residual = 0.0154041, Final residual = 3.51147e-10, No Iterations 11
Time = 3.6

nonePBiCG:  Solving for r, Initial residual = 0.0153998, Final residual = 3.20723e-10, No Iterations 11
Time = 3.65

nonePBiCG:  Solving for r, Initial residual = 0.0153678, Final residual = 3.05857e-10, No Iterations 11
Time = 3.7

nonePBiCG:  Solving for r, Initial residual = 0.015357, Final residual = 2.85806e-10, No Iterations 11
Time = 3.75

nonePBiCG:  Solving for r, Initial residual = 0.015333, Final residual = 9.24823e-10, No Iterations 10
Time = 3.8

nonePBiCG:  Solving for r, Initial residual = 0.0153126, Final residual = 8.72541e-10, No Iterations 10
Time = 3.85

nonePBiCG:  Solving for r, Initial residual = 0.0152975, Final residual = 8.0923e-10, No Iterations 10
Time = 3.9

nonePBiCG:  Solving for r, Initial residual = 0.015267, Final residual = 7.49515e-10, No Iterations 10
Time = 3.95

nonePBiCG:  Solving for r, Initial residual = 0.0152593, Final residual = 7.01224e-10, No Iterations 10
Time = 4

nonePBiCG:  Solving for r, Initial residual = 0.0152248, Final residual = 6.67022e-10, No Iterations 10
Time = 4.05

nonePBiCG:  Solving for r, Initial residual = 0.0152199, Final residual = 6.09482e-10, No Iterations 10
Time = 4.1

nonePBiCG:  Solving for r, Initial residual = 0.0151887, Final residual = 5.81429e-10, No Iterations 10
Time = 4.15

nonePBiCG:  Solving for r, Initial residual = 0.0151777, Final residual = 5.40094e-10, No Iterations 10
Time = 4.2

nonePBiCG:  Solving for r, Initial residual = 0.0151535, Final residual = 5.09143e-10, No Iterations 10
Time = 4.25

nonePBiCG:  Solving for r, Initial residual = 0.0151351, Final residual = 4.71518e-10, No Iterations 10
Time = 4.3

nonePBiCG:  Solving for r, Initial residual = 0.0151168, Final residual = 4.45278e-10, No Iterations 10
Time = 4.35

nonePBiCG:  Solving for r, Initial residual = 0.0150929, Final residual = 4.20616e-10, No Iterations 10
Time = 4.4

nonePBiCG:  Solving for r, Initial residual = 0.0150778, Final residual = 3.9431e-10, No Iterations 10
Time = 4.45

nonePBiCG:  Solving for r, Initial residual = 0.0150492, Final residual = 3.67521e-10, No Iterations 10
Time = 4.5

nonePBiCG:  Solving for r, Initial residual = 0.0150365, Final residual = 3.48921e-10, No Iterations 10
Time = 4.55

nonePBiCG:  Solving for r, Initial residual = 0.0150125, Final residual = 3.25189e-10, No Iterations 10
Time = 4.6

nonePBiCG:  Solving for r, Initial residual = 0.0149983, Final residual = 3.03677e-10, No Iterations 10
Time = 4.65

nonePBiCG:  Solving for r, Initial residual = 0.0149759, Final residual = 2.88254e-10, No Iterations 10
Time = 4.7

nonePBiCG:  Solving for r, Initial residual = 0.0149579, Final residual = 2.66284e-10, No Iterations 10
Time = 4.75

nonePBiCG:  Solving for r, Initial residual = 0.0149383, Final residual = 9.93932e-10, No Iterations 9
Time = 4.8

nonePBiCG:  Solving for r, Initial residual = 0.0149148, Final residual = 9.39729e-10, No Iterations 9
Time = 4.85

nonePBiCG:  Solving for r, Initial residual = 0.0149011, Final residual = 8.93261e-10, No Iterations 9
Time = 4.9

nonePBiCG:  Solving for r, Initial residual = 0.014871, Final residual = 8.36197e-10, No Iterations 9
Time = 4.95

nonePBiCG:  Solving for r, Initial residual = 0.014864, Final residual = 8.04396e-10, No Iterations 9
Time = 5

nonePBiCG:  Solving for r, Initial residual = 0.0148364, Final residual = 7.57178e-10, No Iterations 9
Time = 5.05

nonePBiCG:  Solving for r, Initial residual = 0.014823, Final residual = 7.22355e-10, No Iterations 9
Time = 5.1

nonePBiCG:  Solving for r, Initial residual = 0.0147988, Final residual = 6.87339e-10, No Iterations 9
Time = 5.15

nonePBiCG:  Solving for r, Initial residual = 0.0147797, Final residual = 6.52614e-10, No Iterations 9
Time = 5.2

nonePBiCG:  Solving for r, Initial residual = 0.0147635, Final residual = 6.25223e-10, No Iterations 9
Time = 5.25

nonePBiCG:  Solving for r, Initial residual = 0.0147342, Final residual = 5.95775e-10, No Iterations 9
Time = 5.3

nonePBiCG:  Solving for r, Initial residual = 0.0147266, Final residual = 5.69938e-10, No Iterations 9
Time = 5.35

nonePBiCG:  Solving for r, Initial residual = 0.014698, Final residual = 5.45166e-10, No Iterations 9
Time = 5.4

nonePBiCG:  Solving for r, Initial residual = 0.0146877, Final residual = 5.18523e-10, No Iterations 9
Time = 5.45

nonePBiCG:  Solving for r, Initial residual = 0.0146626, Final residual = 4.98599e-10, No Iterations 9
Time = 5.5

nonePBiCG:  Solving for r, Initial residual = 0.0146455, Final residual = 4.72003e-10, No Iterations 9
Time = 5.55

nonePBiCG:  Solving for r, Initial residual = 0.0146279, Final residual = 4.56773e-10, No Iterations 9
Time = 5.6

nonePBiCG:  Solving for r, Initial residual = 0.0146002, Final residual = 4.33571e-10, No Iterations 9
Time = 5.65

nonePBiCG:  Solving for r, Initial residual = 0.0145916, Final residual = 4.20481e-10, No Iterations 9
Time = 5.7

nonePBiCG:  Solving for r, Initial residual = 0.0145613, Final residual = 4.00207e-10, No Iterations 9
Time = 5.75

nonePBiCG:  Solving for r, Initial residual = 0.0145523, Final residual = 3.86529e-10, No Iterations 9
Time = 5.8

nonePBiCG:  Solving for r, Initial residual = 0.0145286, Final residual = 3.69479e-10, No Iterations 9
Time = 5.85

nonePBiCG:  Solving for r, Initial residual = 0.0145097, Final residual = 3.55062e-10, No Iterations 9
Time = 5.9

nonePBiCG:  Solving for r, Initial residual = 0.0144941, Final residual = 3.4073e-10, No Iterations 9
Time = 5.95

nonePBiCG:  Solving for r, Initial residual = 0.0144651, Final residual = 3.26154e-10, No Iterations 9
Time = 6

nonePBiCG:  Solving for r, Initial residual = 0.0144584, Final residual = 3.13317e-10, No Iterations 9
Time = 6.05

nonePBiCG:  Solving for r, Initial residual = 0.0144274, Final residual = 3.01123e-10, No Iterations 9
Time = 6.1

nonePBiCG:  Solving for r, Initial residual = 0.0144197, Final residual = 2.88408e-10, No Iterations 9
Time = 6.15

nonePBiCG:  Solving for r, Initial residual = 0.014396, Final residual = 2.77659e-10, No Iterations 9
Time = 6.2

nonePBiCG:  Solving for r, Initial residual = 0.0143782, Final residual = 2.65583e-10, No Iterations 9
Time = 6.25

nonePBiCG:  Solving for r, Initial residual = 0.0143615, Final residual = 2.55481e-10, No Iterations 9
Time = 6.3

nonePBiCG:  Solving for r, Initial residual = 0.0143337, Final residual = 2.45002e-10, No Iterations 9
Time = 6.35

nonePBiCG:  Solving for r, Initial residual = 0.0143256, Final residual = 2.35302e-10, No Iterations 9
Time = 6.4

nonePBiCG:  Solving for r, Initial residual = 0.0142962, Final residual = 2.26487e-10, No Iterations 9
Time = 6.45

nonePBiCG:  Solving for r, Initial residual = 0.0142877, Final residual = 2.17286e-10, No Iterations 9
Time = 6.5

nonePBiCG:  Solving for r, Initial residual = 0.0142648, Final residual = 9.96317e-10, No Iterations 8
Time = 6.55

nonePBiCG:  Solving for r, Initial residual = 0.0142467, Final residual = 9.67793e-10, No Iterations 8
Time = 6.6

nonePBiCG:  Solving for r, Initial residual = 0.0142317, Final residual = 9.28643e-10, No Iterations 8
Time = 6.65

nonePBiCG:  Solving for r, Initial residual = 0.0142034, Final residual = 9.02951e-10, No Iterations 8
Time = 6.7

nonePBiCG:  Solving for r, Initial residual = 0.0141961, Final residual = 8.66886e-10, No Iterations 8
Time = 6.75

nonePBiCG:  Solving for r, Initial residual = 0.0141667, Final residual = 8.41054e-10, No Iterations 8
Time = 6.8

nonePBiCG:  Solving for r, Initial residual = 0.0141576, Final residual = 8.09467e-10, No Iterations 8
Time = 6.85

nonePBiCG:  Solving for r, Initial residual = 0.0141362, Final residual = 7.8394e-10, No Iterations 8
Time = 6.9

nonePBiCG:  Solving for r, Initial residual = 0.0141159, Final residual = 7.55599e-10, No Iterations 8
Time = 6.95

nonePBiCG:  Solving for r, Initial residual = 0.0141024, Final residual = 7.33833e-10, No Iterations 8
Time = 7

nonePBiCG:  Solving for r, Initial residual = 0.0140734, Final residual = 7.06568e-10, No Iterations 8
Time = 7.05

nonePBiCG:  Solving for r, Initial residual = 0.0140657, Final residual = 6.86451e-10, No Iterations 8
Time = 7.1

nonePBiCG:  Solving for r, Initial residual = 0.0140387, Final residual = 6.61919e-10, No Iterations 8
Time = 7.15

nonePBiCG:  Solving for r, Initial residual = 0.0140271, Final residual = 6.42543e-10, No Iterations 8
Time = 7.2

nonePBiCG:  Solving for r, Initial residual = 0.0140076, Final residual = 6.197e-10, No Iterations 8
Time = 7.25

nonePBiCG:  Solving for r, Initial residual = 0.0139864, Final residual = 6.01567e-10, No Iterations 8
Time = 7.3

nonePBiCG:  Solving for r, Initial residual = 0.013972, Final residual = 5.81294e-10, No Iterations 8
Time = 7.35

nonePBiCG:  Solving for r, Initial residual = 0.0139419, Final residual = 5.6315e-10, No Iterations 8
Time = 7.4

nonePBiCG:  Solving for r, Initial residual = 0.0139337, Final residual = 5.46201e-10, No Iterations 8
Time = 7.45

nonePBiCG:  Solving for r, Initial residual = 0.0139075, Final residual = 5.27519e-10, No Iterations 8
Time = 7.5

nonePBiCG:  Solving for r, Initial residual = 0.0138929, Final residual = 5.11903e-10, No Iterations 8
Time = 7.55

nonePBiCG:  Solving for r, Initial residual = 0.0138734, Final residual = 4.95721e-10, No Iterations 8
Time = 7.6

nonePBiCG:  Solving for r, Initial residual = 0.0138495, Final residual = 4.8045e-10, No Iterations 8
Time = 7.65

nonePBiCG:  Solving for r, Initial residual = 0.013836, Final residual = 4.65733e-10, No Iterations 8
Time = 7.7

nonePBiCG:  Solving for r, Initial residual = 0.0138019, Final residual = 4.51845e-10, No Iterations 8
Time = 7.75

nonePBiCG:  Solving for r, Initial residual = 0.013794, Final residual = 4.38403e-10, No Iterations 8
Time = 7.8

nonePBiCG:  Solving for r, Initial residual = 0.0137669, Final residual = 4.25194e-10, No Iterations 8
Time = 7.85

nonePBiCG:  Solving for r, Initial residual = 0.0137488, Final residual = 4.13932e-10, No Iterations 8
Time = 7.9

nonePBiCG:  Solving for r, Initial residual = 0.0137283, Final residual = 4.00904e-10, No Iterations 8
Time = 7.95

nonePBiCG:  Solving for r, Initial residual = 0.0136999, Final residual = 3.91351e-10, No Iterations 8
Time = 8

nonePBiCG:  Solving for r, Initial residual = 0.0136852, Final residual = 3.78681e-10, No Iterations 8
Time = 8.05

nonePBiCG:  Solving for r, Initial residual = 0.0136505, Final residual = 3.69203e-10, No Iterations 8
Time = 8.1

nonePBiCG:  Solving for r, Initial residual = 0.0136374, Final residual = 3.58036e-10, No Iterations 8
Time = 8.15

nonePBiCG:  Solving for r, Initial residual = 0.0136105, Final residual = 3.4834e-10, No Iterations 8
Time = 8.2

nonePBiCG:  Solving for r, Initial residual = 0.0135879, Final residual = 3.38051e-10, No Iterations 8
Time = 8.25

nonePBiCG:  Solving for r, Initial residual = 0.0135664, Final residual = 3.28022e-10, No Iterations 8
Time = 8.3

nonePBiCG:  Solving for r, Initial residual = 0.0135341, Final residual = 3.19134e-10, No Iterations 8
Time = 8.35

nonePBiCG:  Solving for r, Initial residual = 0.0135185, Final residual = 3.0848e-10, No Iterations 8
Time = 8.4

nonePBiCG:  Solving for r, Initial residual = 0.0134841, Final residual = 3.00945e-10, No Iterations 8
Time = 8.45

nonePBiCG:  Solving for r, Initial residual = 0.0134666, Final residual = 2.91475e-10, No Iterations 8
Time = 8.5

nonePBiCG:  Solving for r, Initial residual = 0.0134403, Final residual = 2.84223e-10, No Iterations 8
Time = 8.55

nonePBiCG:  Solving for r, Initial residual = 0.0134155, Final residual = 2.76707e-10, No Iterations 8
Time = 8.6

nonePBiCG:  Solving for r, Initial residual = 0.0133933, Final residual = 2.69159e-10, No Iterations 8
Time = 8.65

nonePBiCG:  Solving for r, Initial residual = 0.01336, Final residual = 2.64078e-10, No Iterations 8
Time = 8.7

nonePBiCG:  Solving for r, Initial residual = 0.0133469, Final residual = 2.6043e-10, No Iterations 8
Time = 8.75

nonePBiCG:  Solving for r, Initial residual = 0.0133164, Final residual = 2.60847e-10, No Iterations 8
Time = 8.8

nonePBiCG:  Solving for r, Initial residual = 0.0132989, Final residual = 2.64206e-10, No Iterations 8
Time = 8.85

nonePBiCG:  Solving for r, Initial residual = 0.013275, Final residual = 2.73425e-10, No Iterations 8
Time = 8.9

nonePBiCG:  Solving for r, Initial residual = 0.0132517, Final residual = 2.85571e-10, No Iterations 8
Time = 8.95

nonePBiCG:  Solving for r, Initial residual = 0.0132366, Final residual = 2.94625e-10, No Iterations 8
Time = 9

nonePBiCG:  Solving for r, Initial residual = 0.0132037, Final residual = 2.92562e-10, No Iterations 8
Time = 9.05

nonePBiCG:  Solving for r, Initial residual = 0.0131952, Final residual = 2.73416e-10, No Iterations 8
Time = 9.1

nonePBiCG:  Solving for r, Initial residual = 0.0131741, Final residual = 2.55498e-10, No Iterations 8
Time = 9.15

nonePBiCG:  Solving for r, Initial residual = 0.0131602, Final residual = 2.63815e-10, No Iterations 8
Time = 9.2

nonePBiCG:  Solving for r, Initial residual = 0.0131434, Final residual = 2.84628e-10, No Iterations 8
Time = 9.25

nonePBiCG:  Solving for r, Initial residual = 0.0131216, Final residual = 2.94815e-10, No Iterations 8
Time = 9.3

nonePBiCG:  Solving for r, Initial residual = 0.0131129, Final residual = 2.89965e-10, No Iterations 8
Time = 9.35

nonePBiCG:  Solving for r, Initial residual = 0.0130852, Final residual = 2.7459e-10, No Iterations 8
Time = 9.4

nonePBiCG:  Solving for r, Initial residual = 0.013078, Final residual = 2.55639e-10, No Iterations 8
Time = 9.45

nonePBiCG:  Solving for r, Initial residual = 0.0130564, Final residual = 2.36561e-10, No Iterations 8
Time = 9.5

nonePBiCG:  Solving for r, Initial residual = 0.0130381, Final residual = 2.18652e-10, No Iterations 8
Time = 9.55

nonePBiCG:  Solving for r, Initial residual = 0.0130234, Final residual = 2.03112e-10, No Iterations 8
Time = 9.6

nonePBiCG:  Solving for r, Initial residual = 0.0129965, Final residual = 1.91806e-10, No Iterations 8
Time = 9.65

nonePBiCG:  Solving for r, Initial residual = 0.0129848, Final residual = 1.85062e-10, No Iterations 8
Time = 9.7

nonePBiCG:  Solving for r, Initial residual = 0.012959, Final residual = 1.84211e-10, No Iterations 8
Time = 9.75

nonePBiCG:  Solving for r, Initial residual = 0.0129472, Final residual = 1.86906e-10, No Iterations 8
Time = 9.8

nonePBiCG:  Solving for r, Initial residual = 0.0129248, Final residual = 1.94106e-10, No Iterations 8
Time = 9.85

nonePBiCG:  Solving for r, Initial residual = 0.0129049, Final residual = 2.07628e-10, No Iterations 8
Time = 9.9

nonePBiCG:  Solving for r, Initial residual = 0.012891, Final residual = 2.43941e-10, No Iterations 8
Time = 9.95

nonePBiCG:  Solving for r, Initial residual = 0.0128616, Final residual = 3.20078e-10, No Iterations 8
Time = 10

nonePBiCG:  Solving for r, Initial residual = 0.0128569, Final residual = 4.64948e-10, No Iterations 8
End

